!- Generated with pyidf version 0.2.1, generation date: 2018-08-09 17:32:00.622000
!- Validation level: no

!- Previous comments:

!-Generator IDFEditor 1.50
!-Option SortedOrder
!-NOTE: All comments with '!-' are ignored by the IDFEditor and are generated automatically.
!-      Use '!' comments if they need to be retained when using the IDFEditor.
!-   ===========  ALL OBJECTS IN CLASS: VERSION ===========
! Minimal.idf
! Basic file description: This is a minimal configuration necessary to run.
! Highlights: Illustrates minimal items necessary to perform run.
! BUILDING, SURFACEGEOMETRY, LOCATION and DESIGNDAY (or RUNPERIOD) are the absolute minimal required input objects.
! TIME STEP IN HOUR is included so as to not get warning error.
! Including two design days, Run Control object and RunPeriod to facilitate use.
! Although not incredibly useful, this could be used as a weather/solar calculator.
! Simulation Location/Run: Denver is included.  Any could be used.
! Building: None.
!
! Internal gains description: None.
!
! HVAC: None.
!

!-   ===========  ALL OBJECTS OF GROUP: Simulation Parameters  ===========

  Version,8.9;

  SimulationControl,
    No,                      !- Do Zone Sizing Calculation 
    No,                      !- Do System Sizing Calculation 
    No,                      !- Do Plant Sizing Calculation 
    No,                      !- Run Simulation for Sizing Periods 
    Yes;                     !- Run Simulation for Weather File Run Periods 

  Building,
    ModeloAuto,              !- Name 
    0.0,                     !- North Axis {deg}
    City,                    !- Terrain 
    0.04,                    !- Loads Convergence Tolerance Value 
    0.4,                     !- Temperature Convergence Tolerance Value {deltaC}
    FullInteriorAndExterior,  !- Solar Distribution 
    25,                      !- Maximum Number of Warmup Days 
    ;                        !- Minimum Number of Warmup Days 

  Timestep,4;

!-   ===========  ALL OBJECTS OF GROUP: Location and Climate  ===========

  RunPeriod,
    Periodo,                 !- Name 
    1,                       !- Begin Month 
    1,                       !- Begin Day of Month 
    12,                      !- End Month 
    31,                      !- End Day of Month 
    UseWeatherFile,          !- Day of Week for Start Day 
    No,                      !- Use Weather File Holidays and Special Days 
    No,                      !- Use Weather File Daylight Saving Period 
    No,                      !- Apply Weekend Holiday Rule 
    No,                      !- Use Weather File Rain Indicators 
    No,                      !- Use Weather File Snow Indicators 
    1,                       !- Number of Times Runperiod to be Repeated 
    No;                      !- Increment Day of Week on repeat 

  Site:GroundTemperature:BuildingSurface,21.45,21.32,20.79,20.2,18.93,18.12,17.72,17.82,18.41,19.29,20.28,21.05;

!-   ===========  ALL OBJECTS OF GROUP: Schedules  ===========

  ScheduleTypeLimits,
    Qualquer,                !- Name 
    0.0,                     !- Lower Limit Value 
    100000.0,                !- Upper Limit Value 
    Continuous,              !- Numeric Type 
    Dimensionless;           !- Unit Type 

  ScheduleTypeLimits,
    Temperature,             !- Name 
    -60.0,                   !- Lower Limit Value 
    200.0,                   !- Upper Limit Value 
    CONTINUOUS;              !- Numeric Type 

  Schedule:Compact,
    Sch_Atividade,           !- Name 
    Qualquer,                !- Schedule Type Limits Name 
    Through: 12/31,          !- Field 
    For: alldays,            !- Field 
    Until: 24:00,90;         !- Fields 5 - 7

  Schedule:Compact,
    Sch_Iluminacao,          !- Name 
    Qualquer,                !- Schedule Type Limits Name 
    Through: 12/31,          !- Field 
    For: Weekdays,           !- Field 
    Until: 08:00,0,          !- Fields 5 - 7
    Until: 18:00,1,          !- Fields 7 - 9
    Until: 24:00,0,          !- Fields 9 - 11
    For: allotherdays,       !- Field 
    Until: 24:00,0;          !- Fields 12 - 14

  Schedule:Compact,
    Sch_Equip_Computador,    !- Name 
    Qualquer,                !- Schedule Type Limits Name 
    Through: 12/31,          !- Field 
    For: Weekdays,           !- Field 
    Until: 08:00,0,          !- Fields 5 - 7
    Until: 18:00,1,          !- Fields 7 - 9
    Until: 24:00,0,          !- Fields 9 - 11
    For: allotherdays,       !- Field 
    Until: 24:00,0;          !- Fields 12 - 14

  Schedule:Compact,
    Always On,               !- Name 
    Qualquer,                !- Schedule Type Limits Name 
    Through: 12/31,          !- Field 
    For: alldays,            !- Field 
    Until: 24:00,1.0;        !- Fields 5 - 7

  Schedule:Compact,
    Sch_Ocupacao,            !- Name 
    Qualquer,                !- Schedule Type Limits Name 
    Through: 12/31,          !- Field 
    For: Weekdays,           !- Field 
    Until: 08:00,0,          !- Fields 5 - 7
    Until: 18:00,1,          !- Fields 7 - 9
    Until: 24:00,0,          !- Fields 9 - 11
    For: allotherdays,       !- Field 
    Until: 24:00,0;          !- Fields 12 - 14

  Schedule:Compact,
    Temp_setpoint,           !- Name 
    Temperature,             !- Schedule Type Limits Name 
    Through: 12/31,          !- Field 
    For: AllDays,            !- Field 
    Until: 24:00,20;         !- Fields 5 - 7

!-   ===========  ALL OBJECTS OF GROUP: Surface Construction Elements  ===========

  Material,
    ArgamassaReboco(25mm),   !- Name 
    Rough,                   !- Roughness 
    0.025,                   !- Thickness {m}
    1.15,                    !- Conductivity {W/m-K}
    2000.0,                  !- Density {kg/m3}
    1000.0,                  !- Specific Heat {J/kg-K}
    0.9,                     !- Thermal Absorptance 
    0.4,                     !- Solar Absorptance 
    0.4;                     !- Visible Absorptance 

  Material,
    LajeMacicaConcreto(100mm),  !- Name 
    Rough,                   !- Roughness 
    0.1,                     !- Thickness {m}
    1.75,                    !- Conductivity {W/m-K}
    2200.0,                  !- Density {kg/m3}
    1000.0,                  !- Specific Heat {J/kg-K}
    0.9,                     !- Thermal Absorptance 
    0.7,                     !- Solar Absorptance 
    0.7;                     !- Visible Absorptance 

  Material,
    PisoCeramico(10mm),      !- Name 
    Rough,                   !- Roughness 
    0.01,                    !- Thickness {m}
    0.9,                     !- Conductivity {W/m-K}
    1600.0,                  !- Density {kg/m3}
    920.0,                   !- Specific Heat {J/kg-K}
    0.9,                     !- Thermal Absorptance 
    0.6,                     !- Solar Absorptance 
    0.6;                     !- Visible Absorptance 

  Material,
    PortaMadeira(30mm),      !- Name 
    Rough,                   !- Roughness 
    0.03,                    !- Thickness {m}
    0.15,                    !- Conductivity {W/m-K}
    614.0,                   !- Density {kg/m3}
    2300.0,                  !- Specific Heat {J/kg-K}
    0.9,                     !- Thermal Absorptance 
    0.9,                     !- Solar Absorptance 
    0.9;                     !- Visible Absorptance 

  Material,
    TelhaCeramica,           !- Name 
    Rough,                   !- Roughness 
    0.01,                    !- Thickness {m}
    1.05,                    !- Conductivity {W/m-K}
    2000.0,                  !- Density {kg/m3}
    920.0,                   !- Specific Heat {J/kg-K}
    0.9,                     !- Thermal Absorptance 
    0.6,                     !- Solar Absorptance 
    0.6;                     !- Visible Absorptance 

  Material,
    TelhaFibrocimento,       !- Name 
    Rough,                   !- Roughness 
    0.007,                   !- Thickness {m}
    0.95,                    !- Conductivity {W/m-K}
    1900.0,                  !- Density {kg/m3}
    840.0,                   !- Specific Heat {J/kg-K}
    0.9,                     !- Thermal Absorptance 
    0.6,                     !- Solar Absorptance 
    0.6;                     !- Visible Absorptance 

  Material,
    ForroMadeira(10mm),      !- Name 
    Rough,                   !- Roughness 
    0.01,                    !- Thickness {m}
    0.15,                    !- Conductivity {W/m-K}
    600.0,                   !- Density {kg/m3}
    1340.0,                  !- Specific Heat {J/kg-K}
    0.9,                     !- Thermal Absorptance 
    0.4,                     !- Solar Absorptance 
    0.4;                     !- Visible Absorptance 

  Material,
    Ceram Tij 8 fur circ (10 cm),  !- Name 
    Rough,                   !- Roughness 
    0.033,                   !- Thickness {m}
    0.9,                     !- Conductivity {W/m-K}
    1103.0,                  !- Density {kg/m3}
    920.0,                   !- Specific Heat {J/kg-K}
    0.9,                     !- Thermal Absorptance 
    0.7,                     !- Solar Absorptance 
    0.7;                     !- Visible Absorptance 

  Material,
    TijoloMacico(100mm),     !- Name 
    Rough,                   !- Roughness 
    0.1,                     !- Thickness {m}
    0.9,                     !- Conductivity {W/m-K}
    1600.0,                  !- Density {kg/m3}
    920.0,                   !- Specific Heat {J/kg-K}
    0.9,                     !- Thermal Absorptance 
    0.6,                     !- Solar Absorptance 
    0.6;                     !- Visible Absorptance 

  Material,
    ForroGesso(30mm),        !- Name 
    Rough,                   !- Roughness 
    0.02,                    !- Thickness {m}
    0.35,                    !- Conductivity {W/m-K}
    750.0,                   !- Density {kg/m3}
    840.0,                   !- Specific Heat {J/kg-K}
    0.9,                     !- Thermal Absorptance 
    0.2,                     !- Solar Absorptance 
    0.2;                     !- Visible Absorptance 

  Material,
    ForroMadeira(15mm),      !- Name 
    Rough,                   !- Roughness 
    0.015,                   !- Thickness {m}
    0.15,                    !- Conductivity {W/m-K}
    600.0,                   !- Density {kg/m3}
    1340.0,                  !- Specific Heat {J/kg-K}
    0.9,                     !- Thermal Absorptance 
    0.4,                     !- Solar Absorptance 
    0.4;                     !- Visible Absorptance 

  Material:AirGap,
    F04 Wall air space resistance,  !- Name 
    0.15;                    !- Thermal Resistance {m2-K/W}

  Material:AirGap,
    F05 Ceiling air space resistance,  !- Name 
    0.18;                    !- Thermal Resistance {m2-K/W}

  Material:AirGap,
    Atico:CamaradeAr(>50mm),  !- Name 
    0.21;                    !- Thermal Resistance {m2-K/W}

  Material:AirGap,
    CavidadeBloco:CamaradeAr(20-50mm),  !- Name 
    0.16;                    !- Thermal Resistance {m2-K/W}

  WindowMaterial:SimpleGlazingSystem,
    Clear 3mm,               !- Name 
    5.7,                     !- U-Factor {W/m2-K}
    0.8;                     !- Solar Heat Gain Coefficient 

  WindowMaterial:Gas,
    Air 13mm,                !- Name 
    Air,                     !- Gas Type 
    0.0127;                  !- Thickness {m}

  Construction,
    Exterior Floor,          !- Name 
    LajeMacicaConcreto(100mm),  !- Outside Layer 
    PisoCeramico(10mm);      !- Layer 2 

  Construction,
    Interior Floor,          !- Name 
    ForroGesso(30mm),        !- Outside Layer 
    LajeMacicaConcreto(100mm),  !- Layer 2 
    PisoCeramico(10mm);      !- Layer 3 

  Construction,
    Exterior Wall,           !- Name 
    ArgamassaReboco(25mm),   !- Outside Layer 
    Ceram Tij 8 fur circ (10 cm),  !- Layer 2 
    CavidadeBloco:CamaradeAr(20-50mm),  !- Layer 3 
    Ceram Tij 8 fur circ (10 cm),  !- Layer 4 
    ArgamassaReboco(25mm);   !- Layer 5 

  Construction,
    Interior Wall,           !- Name 
    ArgamassaReboco(25mm),   !- Outside Layer 
    Ceram Tij 8 fur circ (10 cm),  !- Layer 2 
    CavidadeBloco:CamaradeAr(20-50mm),  !- Layer 3 
    Ceram Tij 8 fur circ (10 cm),  !- Layer 4 
    ArgamassaReboco(25mm);   !- Layer 5 

  Construction,
    Exterior Roof,           !- Name 
    TelhaCeramica,           !- Outside Layer 
    Atico:CamaradeAr(>50mm),  !- Layer 2 
    ForroMadeira(15mm);      !- Layer 3 

  Construction,
    Interior Ceiling,        !- Name 
    PisoCeramico(10mm),      !- Outside Layer 
    LajeMacicaConcreto(100mm),  !- Layer 2 
    ForroGesso(30mm);        !- Layer 3 

  Construction,
    Exterior Window,         !- Name 
    Clear 3mm;               !- Outside Layer 

  Construction,
    Interior Door,           !- Name 
    PortaMadeira(30mm);      !- Outside Layer 

  Construction,
    Exterior Door,           !- Name 
    PortaMadeira(30mm);      !- Outside Layer 

!-   ===========  ALL OBJECTS OF GROUP: Thermal Zones and Surfaces  ===========

  GlobalGeometryRules,
    UpperLeftCorner,         !- Starting Vertex Position 
    Counterclockwise,        !- Vertex Entry Direction 
    Relative,                !- Coordinate System 
    Relative,                !- Daylighting Reference Point Coordinate System 
    Relative;                !- Rectangular Surface Coordinate System 

  BuildingSurface:Detailed,
    floor_zn_0,              !- Name 
    Floor,                   !- Surface Type 
    Exterior Floor,          !- Construction Name 
    Zone_0,                  !- Zone Name 
    Ground,                  !- Outside Boundary Condition 
     ,                       !- Outside Boundary Condition Object 
    NoSun,                   !- Sun Exposure 
    NoWind,                  !- Wind Exposure 
    ,                        !- View Factor to Ground 
    4.0,                     !- Number of Vertices 
    3.87298334621,2.58198889747,0.0,  !- Vertex 1 X-coordinate m,Vertex 1 Y-coordinate m,Vertex 1 Z-coordinate m
    3.87298334621,0.0,0.0,   !- Vertex 1 X-coordinate m,Vertex 1 Y-coordinate m,Vertex 1 Z-coordinate m
    0.0,0.0,0.0,             !- Vertex 1 X-coordinate m,Vertex 1 Y-coordinate m,Vertex 1 Z-coordinate m
    0.0,2.58198889747,0.0;   !- Vertex 1 X-coordinate m,Vertex 1 Y-coordinate m,Vertex 1 Z-coordinate m

  BuildingSurface:Detailed,
    ceiling_zn_0,            !- Name 
    Ceiling,                 !- Surface Type 
    Interior Ceiling,        !- Construction Name 
    Zone_0,                  !- Zone Name 
    Surface,                 !- Outside Boundary Condition 
    floor_zn_6,              !- Outside Boundary Condition Object 
    NoSun,                   !- Sun Exposure 
    NoWind,                  !- Wind Exposure 
    ,                        !- View Factor to Ground 
    4.0,                     !- Number of Vertices 
    0.0,2.58198889747,3.0,   !- Vertex 1 X-coordinate m,Vertex 1 Y-coordinate m,Vertex 1 Z-coordinate m
    0.0,0.0,3.0,             !- Vertex 1 X-coordinate m,Vertex 1 Y-coordinate m,Vertex 1 Z-coordinate m
    3.87298334621,0.0,3.0,   !- Vertex 1 X-coordinate m,Vertex 1 Y-coordinate m,Vertex 1 Z-coordinate m
    3.87298334621,2.58198889747,3.0;  !- Vertex 1 X-coordinate m,Vertex 1 Y-coordinate m,Vertex 1 Z-coordinate m

  BuildingSurface:Detailed,
    wall-0_zn_0,             !- Name 
    Wall,                    !- Surface Type 
    Interior Wall,           !- Construction Name 
    Zone_0,                  !- Zone Name 
    Surface,                 !- Outside Boundary Condition 
    wall-2_zn_2,             !- Outside Boundary Condition Object 
    NoSun,                   !- Sun Exposure 
    NoWind,                  !- Wind Exposure 
    ,                        !- View Factor to Ground 
    4.0,                     !- Number of Vertices 
    3.87298334621,2.58198889747,3.0,  !- Vertex 1 X-coordinate m,Vertex 1 Y-coordinate m,Vertex 1 Z-coordinate m
    3.87298334621,2.58198889747,0.0,  !- Vertex 1 X-coordinate m,Vertex 1 Y-coordinate m,Vertex 1 Z-coordinate m
    0.0,2.58198889747,0.0,   !- Vertex 1 X-coordinate m,Vertex 1 Y-coordinate m,Vertex 1 Z-coordinate m
    0.0,2.58198889747,3.0;   !- Vertex 1 X-coordinate m,Vertex 1 Y-coordinate m,Vertex 1 Z-coordinate m

  BuildingSurface:Detailed,
    wall-1_zn_0,             !- Name 
    Wall,                    !- Surface Type 
    Interior Wall,           !- Construction Name 
    Zone_0,                  !- Zone Name 
    Surface,                 !- Outside Boundary Condition 
    wall-corr_zn_0,          !- Outside Boundary Condition Object 
    NoSun,                   !- Sun Exposure 
    NoWind,                  !- Wind Exposure 
    ,                        !- View Factor to Ground 
    4.0,                     !- Number of Vertices 
    3.87298334621,0.0,3.0,   !- Vertex 1 X-coordinate m,Vertex 1 Y-coordinate m,Vertex 1 Z-coordinate m
    3.87298334621,0.0,0.0,   !- Vertex 1 X-coordinate m,Vertex 1 Y-coordinate m,Vertex 1 Z-coordinate m
    3.87298334621,2.58198889747,0.0,  !- Vertex 1 X-coordinate m,Vertex 1 Y-coordinate m,Vertex 1 Z-coordinate m
    3.87298334621,2.58198889747,3.0;  !- Vertex 1 X-coordinate m,Vertex 1 Y-coordinate m,Vertex 1 Z-coordinate m

  BuildingSurface:Detailed,
    wall-2_zn_0,             !- Name 
    Wall,                    !- Surface Type 
    Exterior Wall,           !- Construction Name 
    Zone_0,                  !- Zone Name 
    Outdoors,                !- Outside Boundary Condition 
     ,                       !- Outside Boundary Condition Object 
    SunExposed,              !- Sun Exposure 
    WindExposed,             !- Wind Exposure 
    ,                        !- View Factor to Ground 
    4.0,                     !- Number of Vertices 
    0.0,0.0,3.0,             !- Vertex 1 X-coordinate m,Vertex 1 Y-coordinate m,Vertex 1 Z-coordinate m
    0.0,0.0,0.0,             !- Vertex 1 X-coordinate m,Vertex 1 Y-coordinate m,Vertex 1 Z-coordinate m
    3.87298334621,0.0,0.0,   !- Vertex 1 X-coordinate m,Vertex 1 Y-coordinate m,Vertex 1 Z-coordinate m
    3.87298334621,0.0,3.0;   !- Vertex 1 X-coordinate m,Vertex 1 Y-coordinate m,Vertex 1 Z-coordinate m

  BuildingSurface:Detailed,
    wall-3_zn_0,             !- Name 
    Wall,                    !- Surface Type 
    Exterior Wall,           !- Construction Name 
    Zone_0,                  !- Zone Name 
    Outdoors,                !- Outside Boundary Condition 
     ,                       !- Outside Boundary Condition Object 
    SunExposed,              !- Sun Exposure 
    WindExposed,             !- Wind Exposure 
    ,                        !- View Factor to Ground 
    4.0,                     !- Number of Vertices 
    0.0,2.58198889747,3.0,   !- Vertex 1 X-coordinate m,Vertex 1 Y-coordinate m,Vertex 1 Z-coordinate m
    0.0,2.58198889747,0.0,   !- Vertex 1 X-coordinate m,Vertex 1 Y-coordinate m,Vertex 1 Z-coordinate m
    0.0,0.0,0.0,             !- Vertex 1 X-coordinate m,Vertex 1 Y-coordinate m,Vertex 1 Z-coordinate m
    0.0,0.0,3.0;             !- Vertex 1 X-coordinate m,Vertex 1 Y-coordinate m,Vertex 1 Z-coordinate m

  BuildingSurface:Detailed,
    floor_zn_1,              !- Name 
    Floor,                   !- Surface Type 
    Exterior Floor,          !- Construction Name 
    Zone_1,                  !- Zone Name 
    Ground,                  !- Outside Boundary Condition 
     ,                       !- Outside Boundary Condition Object 
    NoSun,                   !- Sun Exposure 
    NoWind,                  !- Wind Exposure 
    ,                        !- View Factor to Ground 
    4.0,                     !- Number of Vertices 
    3.87298334621,2.58198889747,0.0,  !- Vertex 1 X-coordinate m,Vertex 1 Y-coordinate m,Vertex 1 Z-coordinate m
    3.87298334621,0.0,0.0,   !- Vertex 1 X-coordinate m,Vertex 1 Y-coordinate m,Vertex 1 Z-coordinate m
    0.0,0.0,0.0,             !- Vertex 1 X-coordinate m,Vertex 1 Y-coordinate m,Vertex 1 Z-coordinate m
    0.0,2.58198889747,0.0;   !- Vertex 1 X-coordinate m,Vertex 1 Y-coordinate m,Vertex 1 Z-coordinate m

  BuildingSurface:Detailed,
    ceiling_zn_1,            !- Name 
    Ceiling,                 !- Surface Type 
    Interior Ceiling,        !- Construction Name 
    Zone_1,                  !- Zone Name 
    Surface,                 !- Outside Boundary Condition 
    floor_zn_7,              !- Outside Boundary Condition Object 
    NoSun,                   !- Sun Exposure 
    NoWind,                  !- Wind Exposure 
    ,                        !- View Factor to Ground 
    4.0,                     !- Number of Vertices 
    0.0,2.58198889747,3.0,   !- Vertex 1 X-coordinate m,Vertex 1 Y-coordinate m,Vertex 1 Z-coordinate m
    0.0,0.0,3.0,             !- Vertex 1 X-coordinate m,Vertex 1 Y-coordinate m,Vertex 1 Z-coordinate m
    3.87298334621,0.0,3.0,   !- Vertex 1 X-coordinate m,Vertex 1 Y-coordinate m,Vertex 1 Z-coordinate m
    3.87298334621,2.58198889747,3.0;  !- Vertex 1 X-coordinate m,Vertex 1 Y-coordinate m,Vertex 1 Z-coordinate m

  BuildingSurface:Detailed,
    wall-0_zn_1,             !- Name 
    Wall,                    !- Surface Type 
    Interior Wall,           !- Construction Name 
    Zone_1,                  !- Zone Name 
    Surface,                 !- Outside Boundary Condition 
    wall-2_zn_3,             !- Outside Boundary Condition Object 
    NoSun,                   !- Sun Exposure 
    NoWind,                  !- Wind Exposure 
    ,                        !- View Factor to Ground 
    4.0,                     !- Number of Vertices 
    3.87298334621,2.58198889747,3.0,  !- Vertex 1 X-coordinate m,Vertex 1 Y-coordinate m,Vertex 1 Z-coordinate m
    3.87298334621,2.58198889747,0.0,  !- Vertex 1 X-coordinate m,Vertex 1 Y-coordinate m,Vertex 1 Z-coordinate m
    0.0,2.58198889747,0.0,   !- Vertex 1 X-coordinate m,Vertex 1 Y-coordinate m,Vertex 1 Z-coordinate m
    0.0,2.58198889747,3.0;   !- Vertex 1 X-coordinate m,Vertex 1 Y-coordinate m,Vertex 1 Z-coordinate m

  BuildingSurface:Detailed,
    wall-1_zn_1,             !- Name 
    Wall,                    !- Surface Type 
    Exterior Wall,           !- Construction Name 
    Zone_1,                  !- Zone Name 
    Outdoors,                !- Outside Boundary Condition 
     ,                       !- Outside Boundary Condition Object 
    SunExposed,              !- Sun Exposure 
    WindExposed,             !- Wind Exposure 
    ,                        !- View Factor to Ground 
    4.0,                     !- Number of Vertices 
    3.87298334621,0.0,3.0,   !- Vertex 1 X-coordinate m,Vertex 1 Y-coordinate m,Vertex 1 Z-coordinate m
    3.87298334621,0.0,0.0,   !- Vertex 1 X-coordinate m,Vertex 1 Y-coordinate m,Vertex 1 Z-coordinate m
    3.87298334621,2.58198889747,0.0,  !- Vertex 1 X-coordinate m,Vertex 1 Y-coordinate m,Vertex 1 Z-coordinate m
    3.87298334621,2.58198889747,3.0;  !- Vertex 1 X-coordinate m,Vertex 1 Y-coordinate m,Vertex 1 Z-coordinate m

  BuildingSurface:Detailed,
    wall-2_zn_1,             !- Name 
    Wall,                    !- Surface Type 
    Exterior Wall,           !- Construction Name 
    Zone_1,                  !- Zone Name 
    Outdoors,                !- Outside Boundary Condition 
     ,                       !- Outside Boundary Condition Object 
    SunExposed,              !- Sun Exposure 
    WindExposed,             !- Wind Exposure 
    ,                        !- View Factor to Ground 
    4.0,                     !- Number of Vertices 
    0.0,0.0,3.0,             !- Vertex 1 X-coordinate m,Vertex 1 Y-coordinate m,Vertex 1 Z-coordinate m
    0.0,0.0,0.0,             !- Vertex 1 X-coordinate m,Vertex 1 Y-coordinate m,Vertex 1 Z-coordinate m
    3.87298334621,0.0,0.0,   !- Vertex 1 X-coordinate m,Vertex 1 Y-coordinate m,Vertex 1 Z-coordinate m
    3.87298334621,0.0,3.0;   !- Vertex 1 X-coordinate m,Vertex 1 Y-coordinate m,Vertex 1 Z-coordinate m

  BuildingSurface:Detailed,
    wall-3_zn_1,             !- Name 
    Wall,                    !- Surface Type 
    Interior Wall,           !- Construction Name 
    Zone_1,                  !- Zone Name 
    Surface,                 !- Outside Boundary Condition 
    wall-corr_zn_1,          !- Outside Boundary Condition Object 
    NoSun,                   !- Sun Exposure 
    NoWind,                  !- Wind Exposure 
    ,                        !- View Factor to Ground 
    4.0,                     !- Number of Vertices 
    0.0,2.58198889747,3.0,   !- Vertex 1 X-coordinate m,Vertex 1 Y-coordinate m,Vertex 1 Z-coordinate m
    0.0,2.58198889747,0.0,   !- Vertex 1 X-coordinate m,Vertex 1 Y-coordinate m,Vertex 1 Z-coordinate m
    0.0,0.0,0.0,             !- Vertex 1 X-coordinate m,Vertex 1 Y-coordinate m,Vertex 1 Z-coordinate m
    0.0,0.0,3.0;             !- Vertex 1 X-coordinate m,Vertex 1 Y-coordinate m,Vertex 1 Z-coordinate m

  BuildingSurface:Detailed,
    floor_zn_2,              !- Name 
    Floor,                   !- Surface Type 
    Exterior Floor,          !- Construction Name 
    Zone_2,                  !- Zone Name 
    Ground,                  !- Outside Boundary Condition 
     ,                       !- Outside Boundary Condition Object 
    NoSun,                   !- Sun Exposure 
    NoWind,                  !- Wind Exposure 
    ,                        !- View Factor to Ground 
    4.0,                     !- Number of Vertices 
    3.87298334621,2.58198889747,0.0,  !- Vertex 1 X-coordinate m,Vertex 1 Y-coordinate m,Vertex 1 Z-coordinate m
    3.87298334621,0.0,0.0,   !- Vertex 1 X-coordinate m,Vertex 1 Y-coordinate m,Vertex 1 Z-coordinate m
    0.0,0.0,0.0,             !- Vertex 1 X-coordinate m,Vertex 1 Y-coordinate m,Vertex 1 Z-coordinate m
    0.0,2.58198889747,0.0;   !- Vertex 1 X-coordinate m,Vertex 1 Y-coordinate m,Vertex 1 Z-coordinate m

  BuildingSurface:Detailed,
    ceiling_zn_2,            !- Name 
    Ceiling,                 !- Surface Type 
    Interior Ceiling,        !- Construction Name 
    Zone_2,                  !- Zone Name 
    Surface,                 !- Outside Boundary Condition 
    floor_zn_8,              !- Outside Boundary Condition Object 
    NoSun,                   !- Sun Exposure 
    NoWind,                  !- Wind Exposure 
    ,                        !- View Factor to Ground 
    4.0,                     !- Number of Vertices 
    0.0,2.58198889747,3.0,   !- Vertex 1 X-coordinate m,Vertex 1 Y-coordinate m,Vertex 1 Z-coordinate m
    0.0,0.0,3.0,             !- Vertex 1 X-coordinate m,Vertex 1 Y-coordinate m,Vertex 1 Z-coordinate m
    3.87298334621,0.0,3.0,   !- Vertex 1 X-coordinate m,Vertex 1 Y-coordinate m,Vertex 1 Z-coordinate m
    3.87298334621,2.58198889747,3.0;  !- Vertex 1 X-coordinate m,Vertex 1 Y-coordinate m,Vertex 1 Z-coordinate m

  BuildingSurface:Detailed,
    wall-0_zn_2,             !- Name 
    Wall,                    !- Surface Type 
    Interior Wall,           !- Construction Name 
    Zone_2,                  !- Zone Name 
    Surface,                 !- Outside Boundary Condition 
    wall-2_zn_4,             !- Outside Boundary Condition Object 
    NoSun,                   !- Sun Exposure 
    NoWind,                  !- Wind Exposure 
    ,                        !- View Factor to Ground 
    4.0,                     !- Number of Vertices 
    3.87298334621,2.58198889747,3.0,  !- Vertex 1 X-coordinate m,Vertex 1 Y-coordinate m,Vertex 1 Z-coordinate m
    3.87298334621,2.58198889747,0.0,  !- Vertex 1 X-coordinate m,Vertex 1 Y-coordinate m,Vertex 1 Z-coordinate m
    0.0,2.58198889747,0.0,   !- Vertex 1 X-coordinate m,Vertex 1 Y-coordinate m,Vertex 1 Z-coordinate m
    0.0,2.58198889747,3.0;   !- Vertex 1 X-coordinate m,Vertex 1 Y-coordinate m,Vertex 1 Z-coordinate m

  BuildingSurface:Detailed,
    wall-1_zn_2,             !- Name 
    Wall,                    !- Surface Type 
    Interior Wall,           !- Construction Name 
    Zone_2,                  !- Zone Name 
    Surface,                 !- Outside Boundary Condition 
    wall-corr_zn_2,          !- Outside Boundary Condition Object 
    NoSun,                   !- Sun Exposure 
    NoWind,                  !- Wind Exposure 
    ,                        !- View Factor to Ground 
    4.0,                     !- Number of Vertices 
    3.87298334621,0.0,3.0,   !- Vertex 1 X-coordinate m,Vertex 1 Y-coordinate m,Vertex 1 Z-coordinate m
    3.87298334621,0.0,0.0,   !- Vertex 1 X-coordinate m,Vertex 1 Y-coordinate m,Vertex 1 Z-coordinate m
    3.87298334621,2.58198889747,0.0,  !- Vertex 1 X-coordinate m,Vertex 1 Y-coordinate m,Vertex 1 Z-coordinate m
    3.87298334621,2.58198889747,3.0;  !- Vertex 1 X-coordinate m,Vertex 1 Y-coordinate m,Vertex 1 Z-coordinate m

  BuildingSurface:Detailed,
    wall-2_zn_2,             !- Name 
    Wall,                    !- Surface Type 
    Interior Wall,           !- Construction Name 
    Zone_2,                  !- Zone Name 
    Surface,                 !- Outside Boundary Condition 
    wall-0_zn_0,             !- Outside Boundary Condition Object 
    NoSun,                   !- Sun Exposure 
    NoWind,                  !- Wind Exposure 
    ,                        !- View Factor to Ground 
    4.0,                     !- Number of Vertices 
    0.0,0.0,3.0,             !- Vertex 1 X-coordinate m,Vertex 1 Y-coordinate m,Vertex 1 Z-coordinate m
    0.0,0.0,0.0,             !- Vertex 1 X-coordinate m,Vertex 1 Y-coordinate m,Vertex 1 Z-coordinate m
    3.87298334621,0.0,0.0,   !- Vertex 1 X-coordinate m,Vertex 1 Y-coordinate m,Vertex 1 Z-coordinate m
    3.87298334621,0.0,3.0;   !- Vertex 1 X-coordinate m,Vertex 1 Y-coordinate m,Vertex 1 Z-coordinate m

  BuildingSurface:Detailed,
    wall-3_zn_2,             !- Name 
    Wall,                    !- Surface Type 
    Exterior Wall,           !- Construction Name 
    Zone_2,                  !- Zone Name 
    Outdoors,                !- Outside Boundary Condition 
     ,                       !- Outside Boundary Condition Object 
    SunExposed,              !- Sun Exposure 
    WindExposed,             !- Wind Exposure 
    ,                        !- View Factor to Ground 
    4.0,                     !- Number of Vertices 
    0.0,2.58198889747,3.0,   !- Vertex 1 X-coordinate m,Vertex 1 Y-coordinate m,Vertex 1 Z-coordinate m
    0.0,2.58198889747,0.0,   !- Vertex 1 X-coordinate m,Vertex 1 Y-coordinate m,Vertex 1 Z-coordinate m
    0.0,0.0,0.0,             !- Vertex 1 X-coordinate m,Vertex 1 Y-coordinate m,Vertex 1 Z-coordinate m
    0.0,0.0,3.0;             !- Vertex 1 X-coordinate m,Vertex 1 Y-coordinate m,Vertex 1 Z-coordinate m

  BuildingSurface:Detailed,
    floor_zn_3,              !- Name 
    Floor,                   !- Surface Type 
    Exterior Floor,          !- Construction Name 
    Zone_3,                  !- Zone Name 
    Ground,                  !- Outside Boundary Condition 
     ,                       !- Outside Boundary Condition Object 
    NoSun,                   !- Sun Exposure 
    NoWind,                  !- Wind Exposure 
    ,                        !- View Factor to Ground 
    4.0,                     !- Number of Vertices 
    3.87298334621,2.58198889747,0.0,  !- Vertex 1 X-coordinate m,Vertex 1 Y-coordinate m,Vertex 1 Z-coordinate m
    3.87298334621,0.0,0.0,   !- Vertex 1 X-coordinate m,Vertex 1 Y-coordinate m,Vertex 1 Z-coordinate m
    0.0,0.0,0.0,             !- Vertex 1 X-coordinate m,Vertex 1 Y-coordinate m,Vertex 1 Z-coordinate m
    0.0,2.58198889747,0.0;   !- Vertex 1 X-coordinate m,Vertex 1 Y-coordinate m,Vertex 1 Z-coordinate m

  BuildingSurface:Detailed,
    ceiling_zn_3,            !- Name 
    Ceiling,                 !- Surface Type 
    Interior Ceiling,        !- Construction Name 
    Zone_3,                  !- Zone Name 
    Surface,                 !- Outside Boundary Condition 
    floor_zn_9,              !- Outside Boundary Condition Object 
    NoSun,                   !- Sun Exposure 
    NoWind,                  !- Wind Exposure 
    ,                        !- View Factor to Ground 
    4.0,                     !- Number of Vertices 
    0.0,2.58198889747,3.0,   !- Vertex 1 X-coordinate m,Vertex 1 Y-coordinate m,Vertex 1 Z-coordinate m
    0.0,0.0,3.0,             !- Vertex 1 X-coordinate m,Vertex 1 Y-coordinate m,Vertex 1 Z-coordinate m
    3.87298334621,0.0,3.0,   !- Vertex 1 X-coordinate m,Vertex 1 Y-coordinate m,Vertex 1 Z-coordinate m
    3.87298334621,2.58198889747,3.0;  !- Vertex 1 X-coordinate m,Vertex 1 Y-coordinate m,Vertex 1 Z-coordinate m

  BuildingSurface:Detailed,
    wall-0_zn_3,             !- Name 
    Wall,                    !- Surface Type 
    Interior Wall,           !- Construction Name 
    Zone_3,                  !- Zone Name 
    Surface,                 !- Outside Boundary Condition 
    wall-2_zn_5,             !- Outside Boundary Condition Object 
    NoSun,                   !- Sun Exposure 
    NoWind,                  !- Wind Exposure 
    ,                        !- View Factor to Ground 
    4.0,                     !- Number of Vertices 
    3.87298334621,2.58198889747,3.0,  !- Vertex 1 X-coordinate m,Vertex 1 Y-coordinate m,Vertex 1 Z-coordinate m
    3.87298334621,2.58198889747,0.0,  !- Vertex 1 X-coordinate m,Vertex 1 Y-coordinate m,Vertex 1 Z-coordinate m
    0.0,2.58198889747,0.0,   !- Vertex 1 X-coordinate m,Vertex 1 Y-coordinate m,Vertex 1 Z-coordinate m
    0.0,2.58198889747,3.0;   !- Vertex 1 X-coordinate m,Vertex 1 Y-coordinate m,Vertex 1 Z-coordinate m

  BuildingSurface:Detailed,
    wall-1_zn_3,             !- Name 
    Wall,                    !- Surface Type 
    Exterior Wall,           !- Construction Name 
    Zone_3,                  !- Zone Name 
    Outdoors,                !- Outside Boundary Condition 
     ,                       !- Outside Boundary Condition Object 
    SunExposed,              !- Sun Exposure 
    WindExposed,             !- Wind Exposure 
    ,                        !- View Factor to Ground 
    4.0,                     !- Number of Vertices 
    3.87298334621,0.0,3.0,   !- Vertex 1 X-coordinate m,Vertex 1 Y-coordinate m,Vertex 1 Z-coordinate m
    3.87298334621,0.0,0.0,   !- Vertex 1 X-coordinate m,Vertex 1 Y-coordinate m,Vertex 1 Z-coordinate m
    3.87298334621,2.58198889747,0.0,  !- Vertex 1 X-coordinate m,Vertex 1 Y-coordinate m,Vertex 1 Z-coordinate m
    3.87298334621,2.58198889747,3.0;  !- Vertex 1 X-coordinate m,Vertex 1 Y-coordinate m,Vertex 1 Z-coordinate m

  BuildingSurface:Detailed,
    wall-2_zn_3,             !- Name 
    Wall,                    !- Surface Type 
    Interior Wall,           !- Construction Name 
    Zone_3,                  !- Zone Name 
    Surface,                 !- Outside Boundary Condition 
    wall-0_zn_1,             !- Outside Boundary Condition Object 
    NoSun,                   !- Sun Exposure 
    NoWind,                  !- Wind Exposure 
    ,                        !- View Factor to Ground 
    4.0,                     !- Number of Vertices 
    0.0,0.0,3.0,             !- Vertex 1 X-coordinate m,Vertex 1 Y-coordinate m,Vertex 1 Z-coordinate m
    0.0,0.0,0.0,             !- Vertex 1 X-coordinate m,Vertex 1 Y-coordinate m,Vertex 1 Z-coordinate m
    3.87298334621,0.0,0.0,   !- Vertex 1 X-coordinate m,Vertex 1 Y-coordinate m,Vertex 1 Z-coordinate m
    3.87298334621,0.0,3.0;   !- Vertex 1 X-coordinate m,Vertex 1 Y-coordinate m,Vertex 1 Z-coordinate m

  BuildingSurface:Detailed,
    wall-3_zn_3,             !- Name 
    Wall,                    !- Surface Type 
    Interior Wall,           !- Construction Name 
    Zone_3,                  !- Zone Name 
    Surface,                 !- Outside Boundary Condition 
    wall-corr_zn_3,          !- Outside Boundary Condition Object 
    NoSun,                   !- Sun Exposure 
    NoWind,                  !- Wind Exposure 
    ,                        !- View Factor to Ground 
    4.0,                     !- Number of Vertices 
    0.0,2.58198889747,3.0,   !- Vertex 1 X-coordinate m,Vertex 1 Y-coordinate m,Vertex 1 Z-coordinate m
    0.0,2.58198889747,0.0,   !- Vertex 1 X-coordinate m,Vertex 1 Y-coordinate m,Vertex 1 Z-coordinate m
    0.0,0.0,0.0,             !- Vertex 1 X-coordinate m,Vertex 1 Y-coordinate m,Vertex 1 Z-coordinate m
    0.0,0.0,3.0;             !- Vertex 1 X-coordinate m,Vertex 1 Y-coordinate m,Vertex 1 Z-coordinate m

  BuildingSurface:Detailed,
    floor_zn_4,              !- Name 
    Floor,                   !- Surface Type 
    Exterior Floor,          !- Construction Name 
    Zone_4,                  !- Zone Name 
    Ground,                  !- Outside Boundary Condition 
     ,                       !- Outside Boundary Condition Object 
    NoSun,                   !- Sun Exposure 
    NoWind,                  !- Wind Exposure 
    ,                        !- View Factor to Ground 
    4.0,                     !- Number of Vertices 
    3.87298334621,2.58198889747,0.0,  !- Vertex 1 X-coordinate m,Vertex 1 Y-coordinate m,Vertex 1 Z-coordinate m
    3.87298334621,0.0,0.0,   !- Vertex 1 X-coordinate m,Vertex 1 Y-coordinate m,Vertex 1 Z-coordinate m
    0.0,0.0,0.0,             !- Vertex 1 X-coordinate m,Vertex 1 Y-coordinate m,Vertex 1 Z-coordinate m
    0.0,2.58198889747,0.0;   !- Vertex 1 X-coordinate m,Vertex 1 Y-coordinate m,Vertex 1 Z-coordinate m

  BuildingSurface:Detailed,
    ceiling_zn_4,            !- Name 
    Ceiling,                 !- Surface Type 
    Interior Ceiling,        !- Construction Name 
    Zone_4,                  !- Zone Name 
    Surface,                 !- Outside Boundary Condition 
    floor_zn_10,             !- Outside Boundary Condition Object 
    NoSun,                   !- Sun Exposure 
    NoWind,                  !- Wind Exposure 
    ,                        !- View Factor to Ground 
    4.0,                     !- Number of Vertices 
    0.0,2.58198889747,3.0,   !- Vertex 1 X-coordinate m,Vertex 1 Y-coordinate m,Vertex 1 Z-coordinate m
    0.0,0.0,3.0,             !- Vertex 1 X-coordinate m,Vertex 1 Y-coordinate m,Vertex 1 Z-coordinate m
    3.87298334621,0.0,3.0,   !- Vertex 1 X-coordinate m,Vertex 1 Y-coordinate m,Vertex 1 Z-coordinate m
    3.87298334621,2.58198889747,3.0;  !- Vertex 1 X-coordinate m,Vertex 1 Y-coordinate m,Vertex 1 Z-coordinate m

  BuildingSurface:Detailed,
    wall-0_zn_4,             !- Name 
    Wall,                    !- Surface Type 
    Exterior Wall,           !- Construction Name 
    Zone_4,                  !- Zone Name 
    Outdoors,                !- Outside Boundary Condition 
     ,                       !- Outside Boundary Condition Object 
    SunExposed,              !- Sun Exposure 
    WindExposed,             !- Wind Exposure 
    ,                        !- View Factor to Ground 
    4.0,                     !- Number of Vertices 
    3.87298334621,2.58198889747,3.0,  !- Vertex 1 X-coordinate m,Vertex 1 Y-coordinate m,Vertex 1 Z-coordinate m
    3.87298334621,2.58198889747,0.0,  !- Vertex 1 X-coordinate m,Vertex 1 Y-coordinate m,Vertex 1 Z-coordinate m
    0.0,2.58198889747,0.0,   !- Vertex 1 X-coordinate m,Vertex 1 Y-coordinate m,Vertex 1 Z-coordinate m
    0.0,2.58198889747,3.0;   !- Vertex 1 X-coordinate m,Vertex 1 Y-coordinate m,Vertex 1 Z-coordinate m

  BuildingSurface:Detailed,
    wall-1_zn_4,             !- Name 
    Wall,                    !- Surface Type 
    Interior Wall,           !- Construction Name 
    Zone_4,                  !- Zone Name 
    Surface,                 !- Outside Boundary Condition 
    wall-corr_zn_4,          !- Outside Boundary Condition Object 
    NoSun,                   !- Sun Exposure 
    NoWind,                  !- Wind Exposure 
    ,                        !- View Factor to Ground 
    4.0,                     !- Number of Vertices 
    3.87298334621,0.0,3.0,   !- Vertex 1 X-coordinate m,Vertex 1 Y-coordinate m,Vertex 1 Z-coordinate m
    3.87298334621,0.0,0.0,   !- Vertex 1 X-coordinate m,Vertex 1 Y-coordinate m,Vertex 1 Z-coordinate m
    3.87298334621,2.58198889747,0.0,  !- Vertex 1 X-coordinate m,Vertex 1 Y-coordinate m,Vertex 1 Z-coordinate m
    3.87298334621,2.58198889747,3.0;  !- Vertex 1 X-coordinate m,Vertex 1 Y-coordinate m,Vertex 1 Z-coordinate m

  BuildingSurface:Detailed,
    wall-2_zn_4,             !- Name 
    Wall,                    !- Surface Type 
    Interior Wall,           !- Construction Name 
    Zone_4,                  !- Zone Name 
    Surface,                 !- Outside Boundary Condition 
    wall-0_zn_2,             !- Outside Boundary Condition Object 
    NoSun,                   !- Sun Exposure 
    NoWind,                  !- Wind Exposure 
    ,                        !- View Factor to Ground 
    4.0,                     !- Number of Vertices 
    0.0,0.0,3.0,             !- Vertex 1 X-coordinate m,Vertex 1 Y-coordinate m,Vertex 1 Z-coordinate m
    0.0,0.0,0.0,             !- Vertex 1 X-coordinate m,Vertex 1 Y-coordinate m,Vertex 1 Z-coordinate m
    3.87298334621,0.0,0.0,   !- Vertex 1 X-coordinate m,Vertex 1 Y-coordinate m,Vertex 1 Z-coordinate m
    3.87298334621,0.0,3.0;   !- Vertex 1 X-coordinate m,Vertex 1 Y-coordinate m,Vertex 1 Z-coordinate m

  BuildingSurface:Detailed,
    wall-3_zn_4,             !- Name 
    Wall,                    !- Surface Type 
    Exterior Wall,           !- Construction Name 
    Zone_4,                  !- Zone Name 
    Outdoors,                !- Outside Boundary Condition 
     ,                       !- Outside Boundary Condition Object 
    SunExposed,              !- Sun Exposure 
    WindExposed,             !- Wind Exposure 
    ,                        !- View Factor to Ground 
    4.0,                     !- Number of Vertices 
    0.0,2.58198889747,3.0,   !- Vertex 1 X-coordinate m,Vertex 1 Y-coordinate m,Vertex 1 Z-coordinate m
    0.0,2.58198889747,0.0,   !- Vertex 1 X-coordinate m,Vertex 1 Y-coordinate m,Vertex 1 Z-coordinate m
    0.0,0.0,0.0,             !- Vertex 1 X-coordinate m,Vertex 1 Y-coordinate m,Vertex 1 Z-coordinate m
    0.0,0.0,3.0;             !- Vertex 1 X-coordinate m,Vertex 1 Y-coordinate m,Vertex 1 Z-coordinate m

  BuildingSurface:Detailed,
    floor_zn_5,              !- Name 
    Floor,                   !- Surface Type 
    Exterior Floor,          !- Construction Name 
    Zone_5,                  !- Zone Name 
    Ground,                  !- Outside Boundary Condition 
     ,                       !- Outside Boundary Condition Object 
    NoSun,                   !- Sun Exposure 
    NoWind,                  !- Wind Exposure 
    ,                        !- View Factor to Ground 
    4.0,                     !- Number of Vertices 
    3.87298334621,2.58198889747,0.0,  !- Vertex 1 X-coordinate m,Vertex 1 Y-coordinate m,Vertex 1 Z-coordinate m
    3.87298334621,0.0,0.0,   !- Vertex 1 X-coordinate m,Vertex 1 Y-coordinate m,Vertex 1 Z-coordinate m
    0.0,0.0,0.0,             !- Vertex 1 X-coordinate m,Vertex 1 Y-coordinate m,Vertex 1 Z-coordinate m
    0.0,2.58198889747,0.0;   !- Vertex 1 X-coordinate m,Vertex 1 Y-coordinate m,Vertex 1 Z-coordinate m

  BuildingSurface:Detailed,
    ceiling_zn_5,            !- Name 
    Ceiling,                 !- Surface Type 
    Interior Ceiling,        !- Construction Name 
    Zone_5,                  !- Zone Name 
    Surface,                 !- Outside Boundary Condition 
    floor_zn_11,             !- Outside Boundary Condition Object 
    NoSun,                   !- Sun Exposure 
    NoWind,                  !- Wind Exposure 
    ,                        !- View Factor to Ground 
    4.0,                     !- Number of Vertices 
    0.0,2.58198889747,3.0,   !- Vertex 1 X-coordinate m,Vertex 1 Y-coordinate m,Vertex 1 Z-coordinate m
    0.0,0.0,3.0,             !- Vertex 1 X-coordinate m,Vertex 1 Y-coordinate m,Vertex 1 Z-coordinate m
    3.87298334621,0.0,3.0,   !- Vertex 1 X-coordinate m,Vertex 1 Y-coordinate m,Vertex 1 Z-coordinate m
    3.87298334621,2.58198889747,3.0;  !- Vertex 1 X-coordinate m,Vertex 1 Y-coordinate m,Vertex 1 Z-coordinate m

  BuildingSurface:Detailed,
    wall-0_zn_5,             !- Name 
    Wall,                    !- Surface Type 
    Exterior Wall,           !- Construction Name 
    Zone_5,                  !- Zone Name 
    Outdoors,                !- Outside Boundary Condition 
     ,                       !- Outside Boundary Condition Object 
    SunExposed,              !- Sun Exposure 
    WindExposed,             !- Wind Exposure 
    ,                        !- View Factor to Ground 
    4.0,                     !- Number of Vertices 
    3.87298334621,2.58198889747,3.0,  !- Vertex 1 X-coordinate m,Vertex 1 Y-coordinate m,Vertex 1 Z-coordinate m
    3.87298334621,2.58198889747,0.0,  !- Vertex 1 X-coordinate m,Vertex 1 Y-coordinate m,Vertex 1 Z-coordinate m
    0.0,2.58198889747,0.0,   !- Vertex 1 X-coordinate m,Vertex 1 Y-coordinate m,Vertex 1 Z-coordinate m
    0.0,2.58198889747,3.0;   !- Vertex 1 X-coordinate m,Vertex 1 Y-coordinate m,Vertex 1 Z-coordinate m

  BuildingSurface:Detailed,
    wall-1_zn_5,             !- Name 
    Wall,                    !- Surface Type 
    Exterior Wall,           !- Construction Name 
    Zone_5,                  !- Zone Name 
    Outdoors,                !- Outside Boundary Condition 
     ,                       !- Outside Boundary Condition Object 
    SunExposed,              !- Sun Exposure 
    WindExposed,             !- Wind Exposure 
    ,                        !- View Factor to Ground 
    4.0,                     !- Number of Vertices 
    3.87298334621,0.0,3.0,   !- Vertex 1 X-coordinate m,Vertex 1 Y-coordinate m,Vertex 1 Z-coordinate m
    3.87298334621,0.0,0.0,   !- Vertex 1 X-coordinate m,Vertex 1 Y-coordinate m,Vertex 1 Z-coordinate m
    3.87298334621,2.58198889747,0.0,  !- Vertex 1 X-coordinate m,Vertex 1 Y-coordinate m,Vertex 1 Z-coordinate m
    3.87298334621,2.58198889747,3.0;  !- Vertex 1 X-coordinate m,Vertex 1 Y-coordinate m,Vertex 1 Z-coordinate m

  BuildingSurface:Detailed,
    wall-2_zn_5,             !- Name 
    Wall,                    !- Surface Type 
    Interior Wall,           !- Construction Name 
    Zone_5,                  !- Zone Name 
    Surface,                 !- Outside Boundary Condition 
    wall-0_zn_3,             !- Outside Boundary Condition Object 
    NoSun,                   !- Sun Exposure 
    NoWind,                  !- Wind Exposure 
    ,                        !- View Factor to Ground 
    4.0,                     !- Number of Vertices 
    0.0,0.0,3.0,             !- Vertex 1 X-coordinate m,Vertex 1 Y-coordinate m,Vertex 1 Z-coordinate m
    0.0,0.0,0.0,             !- Vertex 1 X-coordinate m,Vertex 1 Y-coordinate m,Vertex 1 Z-coordinate m
    3.87298334621,0.0,0.0,   !- Vertex 1 X-coordinate m,Vertex 1 Y-coordinate m,Vertex 1 Z-coordinate m
    3.87298334621,0.0,3.0;   !- Vertex 1 X-coordinate m,Vertex 1 Y-coordinate m,Vertex 1 Z-coordinate m

  BuildingSurface:Detailed,
    wall-3_zn_5,             !- Name 
    Wall,                    !- Surface Type 
    Interior Wall,           !- Construction Name 
    Zone_5,                  !- Zone Name 
    Surface,                 !- Outside Boundary Condition 
    wall-corr_zn_5,          !- Outside Boundary Condition Object 
    NoSun,                   !- Sun Exposure 
    NoWind,                  !- Wind Exposure 
    ,                        !- View Factor to Ground 
    4.0,                     !- Number of Vertices 
    0.0,2.58198889747,3.0,   !- Vertex 1 X-coordinate m,Vertex 1 Y-coordinate m,Vertex 1 Z-coordinate m
    0.0,2.58198889747,0.0,   !- Vertex 1 X-coordinate m,Vertex 1 Y-coordinate m,Vertex 1 Z-coordinate m
    0.0,0.0,0.0,             !- Vertex 1 X-coordinate m,Vertex 1 Y-coordinate m,Vertex 1 Z-coordinate m
    0.0,0.0,3.0;             !- Vertex 1 X-coordinate m,Vertex 1 Y-coordinate m,Vertex 1 Z-coordinate m

  BuildingSurface:Detailed,
    floor_zn_6,              !- Name 
    Floor,                   !- Surface Type 
    Interior Floor,          !- Construction Name 
    Zone_6,                  !- Zone Name 
    Surface,                 !- Outside Boundary Condition 
    ceiling_zn_0,            !- Outside Boundary Condition Object 
    NoSun,                   !- Sun Exposure 
    NoWind,                  !- Wind Exposure 
    ,                        !- View Factor to Ground 
    4.0,                     !- Number of Vertices 
    3.87298334621,2.58198889747,0.0,  !- Vertex 1 X-coordinate m,Vertex 1 Y-coordinate m,Vertex 1 Z-coordinate m
    3.87298334621,0.0,0.0,   !- Vertex 1 X-coordinate m,Vertex 1 Y-coordinate m,Vertex 1 Z-coordinate m
    0.0,0.0,0.0,             !- Vertex 1 X-coordinate m,Vertex 1 Y-coordinate m,Vertex 1 Z-coordinate m
    0.0,2.58198889747,0.0;   !- Vertex 1 X-coordinate m,Vertex 1 Y-coordinate m,Vertex 1 Z-coordinate m

  BuildingSurface:Detailed,
    ceiling_zn_6,            !- Name 
    Roof,                    !- Surface Type 
    Exterior Roof,           !- Construction Name 
    Zone_6,                  !- Zone Name 
    Outdoors,                !- Outside Boundary Condition 
     ,                       !- Outside Boundary Condition Object 
    SunExposed,              !- Sun Exposure 
    WindExposed,             !- Wind Exposure 
    ,                        !- View Factor to Ground 
    4.0,                     !- Number of Vertices 
    0.0,2.58198889747,3.0,   !- Vertex 1 X-coordinate m,Vertex 1 Y-coordinate m,Vertex 1 Z-coordinate m
    0.0,0.0,3.0,             !- Vertex 1 X-coordinate m,Vertex 1 Y-coordinate m,Vertex 1 Z-coordinate m
    3.87298334621,0.0,3.0,   !- Vertex 1 X-coordinate m,Vertex 1 Y-coordinate m,Vertex 1 Z-coordinate m
    3.87298334621,2.58198889747,3.0;  !- Vertex 1 X-coordinate m,Vertex 1 Y-coordinate m,Vertex 1 Z-coordinate m

  BuildingSurface:Detailed,
    wall-0_zn_6,             !- Name 
    Wall,                    !- Surface Type 
    Interior Wall,           !- Construction Name 
    Zone_6,                  !- Zone Name 
    Surface,                 !- Outside Boundary Condition 
    wall-2_zn_8,             !- Outside Boundary Condition Object 
    NoSun,                   !- Sun Exposure 
    NoWind,                  !- Wind Exposure 
    ,                        !- View Factor to Ground 
    4.0,                     !- Number of Vertices 
    3.87298334621,2.58198889747,3.0,  !- Vertex 1 X-coordinate m,Vertex 1 Y-coordinate m,Vertex 1 Z-coordinate m
    3.87298334621,2.58198889747,0.0,  !- Vertex 1 X-coordinate m,Vertex 1 Y-coordinate m,Vertex 1 Z-coordinate m
    0.0,2.58198889747,0.0,   !- Vertex 1 X-coordinate m,Vertex 1 Y-coordinate m,Vertex 1 Z-coordinate m
    0.0,2.58198889747,3.0;   !- Vertex 1 X-coordinate m,Vertex 1 Y-coordinate m,Vertex 1 Z-coordinate m

  BuildingSurface:Detailed,
    wall-1_zn_6,             !- Name 
    Wall,                    !- Surface Type 
    Interior Wall,           !- Construction Name 
    Zone_6,                  !- Zone Name 
    Surface,                 !- Outside Boundary Condition 
    wall-corr_zn_6,          !- Outside Boundary Condition Object 
    NoSun,                   !- Sun Exposure 
    NoWind,                  !- Wind Exposure 
    ,                        !- View Factor to Ground 
    4.0,                     !- Number of Vertices 
    3.87298334621,0.0,3.0,   !- Vertex 1 X-coordinate m,Vertex 1 Y-coordinate m,Vertex 1 Z-coordinate m
    3.87298334621,0.0,0.0,   !- Vertex 1 X-coordinate m,Vertex 1 Y-coordinate m,Vertex 1 Z-coordinate m
    3.87298334621,2.58198889747,0.0,  !- Vertex 1 X-coordinate m,Vertex 1 Y-coordinate m,Vertex 1 Z-coordinate m
    3.87298334621,2.58198889747,3.0;  !- Vertex 1 X-coordinate m,Vertex 1 Y-coordinate m,Vertex 1 Z-coordinate m

  BuildingSurface:Detailed,
    wall-2_zn_6,             !- Name 
    Wall,                    !- Surface Type 
    Exterior Wall,           !- Construction Name 
    Zone_6,                  !- Zone Name 
    Outdoors,                !- Outside Boundary Condition 
     ,                       !- Outside Boundary Condition Object 
    SunExposed,              !- Sun Exposure 
    WindExposed,             !- Wind Exposure 
    ,                        !- View Factor to Ground 
    4.0,                     !- Number of Vertices 
    0.0,0.0,3.0,             !- Vertex 1 X-coordinate m,Vertex 1 Y-coordinate m,Vertex 1 Z-coordinate m
    0.0,0.0,0.0,             !- Vertex 1 X-coordinate m,Vertex 1 Y-coordinate m,Vertex 1 Z-coordinate m
    3.87298334621,0.0,0.0,   !- Vertex 1 X-coordinate m,Vertex 1 Y-coordinate m,Vertex 1 Z-coordinate m
    3.87298334621,0.0,3.0;   !- Vertex 1 X-coordinate m,Vertex 1 Y-coordinate m,Vertex 1 Z-coordinate m

  BuildingSurface:Detailed,
    wall-3_zn_6,             !- Name 
    Wall,                    !- Surface Type 
    Exterior Wall,           !- Construction Name 
    Zone_6,                  !- Zone Name 
    Outdoors,                !- Outside Boundary Condition 
     ,                       !- Outside Boundary Condition Object 
    SunExposed,              !- Sun Exposure 
    WindExposed,             !- Wind Exposure 
    ,                        !- View Factor to Ground 
    4.0,                     !- Number of Vertices 
    0.0,2.58198889747,3.0,   !- Vertex 1 X-coordinate m,Vertex 1 Y-coordinate m,Vertex 1 Z-coordinate m
    0.0,2.58198889747,0.0,   !- Vertex 1 X-coordinate m,Vertex 1 Y-coordinate m,Vertex 1 Z-coordinate m
    0.0,0.0,0.0,             !- Vertex 1 X-coordinate m,Vertex 1 Y-coordinate m,Vertex 1 Z-coordinate m
    0.0,0.0,3.0;             !- Vertex 1 X-coordinate m,Vertex 1 Y-coordinate m,Vertex 1 Z-coordinate m

  BuildingSurface:Detailed,
    floor_zn_7,              !- Name 
    Floor,                   !- Surface Type 
    Interior Floor,          !- Construction Name 
    Zone_7,                  !- Zone Name 
    Surface,                 !- Outside Boundary Condition 
    ceiling_zn_1,            !- Outside Boundary Condition Object 
    NoSun,                   !- Sun Exposure 
    NoWind,                  !- Wind Exposure 
    ,                        !- View Factor to Ground 
    4.0,                     !- Number of Vertices 
    3.87298334621,2.58198889747,0.0,  !- Vertex 1 X-coordinate m,Vertex 1 Y-coordinate m,Vertex 1 Z-coordinate m
    3.87298334621,0.0,0.0,   !- Vertex 1 X-coordinate m,Vertex 1 Y-coordinate m,Vertex 1 Z-coordinate m
    0.0,0.0,0.0,             !- Vertex 1 X-coordinate m,Vertex 1 Y-coordinate m,Vertex 1 Z-coordinate m
    0.0,2.58198889747,0.0;   !- Vertex 1 X-coordinate m,Vertex 1 Y-coordinate m,Vertex 1 Z-coordinate m

  BuildingSurface:Detailed,
    ceiling_zn_7,            !- Name 
    Roof,                    !- Surface Type 
    Exterior Roof,           !- Construction Name 
    Zone_7,                  !- Zone Name 
    Outdoors,                !- Outside Boundary Condition 
     ,                       !- Outside Boundary Condition Object 
    SunExposed,              !- Sun Exposure 
    WindExposed,             !- Wind Exposure 
    ,                        !- View Factor to Ground 
    4.0,                     !- Number of Vertices 
    0.0,2.58198889747,3.0,   !- Vertex 1 X-coordinate m,Vertex 1 Y-coordinate m,Vertex 1 Z-coordinate m
    0.0,0.0,3.0,             !- Vertex 1 X-coordinate m,Vertex 1 Y-coordinate m,Vertex 1 Z-coordinate m
    3.87298334621,0.0,3.0,   !- Vertex 1 X-coordinate m,Vertex 1 Y-coordinate m,Vertex 1 Z-coordinate m
    3.87298334621,2.58198889747,3.0;  !- Vertex 1 X-coordinate m,Vertex 1 Y-coordinate m,Vertex 1 Z-coordinate m

  BuildingSurface:Detailed,
    wall-0_zn_7,             !- Name 
    Wall,                    !- Surface Type 
    Interior Wall,           !- Construction Name 
    Zone_7,                  !- Zone Name 
    Surface,                 !- Outside Boundary Condition 
    wall-2_zn_9,             !- Outside Boundary Condition Object 
    NoSun,                   !- Sun Exposure 
    NoWind,                  !- Wind Exposure 
    ,                        !- View Factor to Ground 
    4.0,                     !- Number of Vertices 
    3.87298334621,2.58198889747,3.0,  !- Vertex 1 X-coordinate m,Vertex 1 Y-coordinate m,Vertex 1 Z-coordinate m
    3.87298334621,2.58198889747,0.0,  !- Vertex 1 X-coordinate m,Vertex 1 Y-coordinate m,Vertex 1 Z-coordinate m
    0.0,2.58198889747,0.0,   !- Vertex 1 X-coordinate m,Vertex 1 Y-coordinate m,Vertex 1 Z-coordinate m
    0.0,2.58198889747,3.0;   !- Vertex 1 X-coordinate m,Vertex 1 Y-coordinate m,Vertex 1 Z-coordinate m

  BuildingSurface:Detailed,
    wall-1_zn_7,             !- Name 
    Wall,                    !- Surface Type 
    Exterior Wall,           !- Construction Name 
    Zone_7,                  !- Zone Name 
    Outdoors,                !- Outside Boundary Condition 
     ,                       !- Outside Boundary Condition Object 
    SunExposed,              !- Sun Exposure 
    WindExposed,             !- Wind Exposure 
    ,                        !- View Factor to Ground 
    4.0,                     !- Number of Vertices 
    3.87298334621,0.0,3.0,   !- Vertex 1 X-coordinate m,Vertex 1 Y-coordinate m,Vertex 1 Z-coordinate m
    3.87298334621,0.0,0.0,   !- Vertex 1 X-coordinate m,Vertex 1 Y-coordinate m,Vertex 1 Z-coordinate m
    3.87298334621,2.58198889747,0.0,  !- Vertex 1 X-coordinate m,Vertex 1 Y-coordinate m,Vertex 1 Z-coordinate m
    3.87298334621,2.58198889747,3.0;  !- Vertex 1 X-coordinate m,Vertex 1 Y-coordinate m,Vertex 1 Z-coordinate m

  BuildingSurface:Detailed,
    wall-2_zn_7,             !- Name 
    Wall,                    !- Surface Type 
    Exterior Wall,           !- Construction Name 
    Zone_7,                  !- Zone Name 
    Outdoors,                !- Outside Boundary Condition 
     ,                       !- Outside Boundary Condition Object 
    SunExposed,              !- Sun Exposure 
    WindExposed,             !- Wind Exposure 
    ,                        !- View Factor to Ground 
    4.0,                     !- Number of Vertices 
    0.0,0.0,3.0,             !- Vertex 1 X-coordinate m,Vertex 1 Y-coordinate m,Vertex 1 Z-coordinate m
    0.0,0.0,0.0,             !- Vertex 1 X-coordinate m,Vertex 1 Y-coordinate m,Vertex 1 Z-coordinate m
    3.87298334621,0.0,0.0,   !- Vertex 1 X-coordinate m,Vertex 1 Y-coordinate m,Vertex 1 Z-coordinate m
    3.87298334621,0.0,3.0;   !- Vertex 1 X-coordinate m,Vertex 1 Y-coordinate m,Vertex 1 Z-coordinate m

  BuildingSurface:Detailed,
    wall-3_zn_7,             !- Name 
    Wall,                    !- Surface Type 
    Interior Wall,           !- Construction Name 
    Zone_7,                  !- Zone Name 
    Surface,                 !- Outside Boundary Condition 
    wall-corr_zn_7,          !- Outside Boundary Condition Object 
    NoSun,                   !- Sun Exposure 
    NoWind,                  !- Wind Exposure 
    ,                        !- View Factor to Ground 
    4.0,                     !- Number of Vertices 
    0.0,2.58198889747,3.0,   !- Vertex 1 X-coordinate m,Vertex 1 Y-coordinate m,Vertex 1 Z-coordinate m
    0.0,2.58198889747,0.0,   !- Vertex 1 X-coordinate m,Vertex 1 Y-coordinate m,Vertex 1 Z-coordinate m
    0.0,0.0,0.0,             !- Vertex 1 X-coordinate m,Vertex 1 Y-coordinate m,Vertex 1 Z-coordinate m
    0.0,0.0,3.0;             !- Vertex 1 X-coordinate m,Vertex 1 Y-coordinate m,Vertex 1 Z-coordinate m

  BuildingSurface:Detailed,
    floor_zn_8,              !- Name 
    Floor,                   !- Surface Type 
    Interior Floor,          !- Construction Name 
    Zone_8,                  !- Zone Name 
    Surface,                 !- Outside Boundary Condition 
    ceiling_zn_2,            !- Outside Boundary Condition Object 
    NoSun,                   !- Sun Exposure 
    NoWind,                  !- Wind Exposure 
    ,                        !- View Factor to Ground 
    4.0,                     !- Number of Vertices 
    3.87298334621,2.58198889747,0.0,  !- Vertex 1 X-coordinate m,Vertex 1 Y-coordinate m,Vertex 1 Z-coordinate m
    3.87298334621,0.0,0.0,   !- Vertex 1 X-coordinate m,Vertex 1 Y-coordinate m,Vertex 1 Z-coordinate m
    0.0,0.0,0.0,             !- Vertex 1 X-coordinate m,Vertex 1 Y-coordinate m,Vertex 1 Z-coordinate m
    0.0,2.58198889747,0.0;   !- Vertex 1 X-coordinate m,Vertex 1 Y-coordinate m,Vertex 1 Z-coordinate m

  BuildingSurface:Detailed,
    ceiling_zn_8,            !- Name 
    Roof,                    !- Surface Type 
    Exterior Roof,           !- Construction Name 
    Zone_8,                  !- Zone Name 
    Outdoors,                !- Outside Boundary Condition 
     ,                       !- Outside Boundary Condition Object 
    SunExposed,              !- Sun Exposure 
    WindExposed,             !- Wind Exposure 
    ,                        !- View Factor to Ground 
    4.0,                     !- Number of Vertices 
    0.0,2.58198889747,3.0,   !- Vertex 1 X-coordinate m,Vertex 1 Y-coordinate m,Vertex 1 Z-coordinate m
    0.0,0.0,3.0,             !- Vertex 1 X-coordinate m,Vertex 1 Y-coordinate m,Vertex 1 Z-coordinate m
    3.87298334621,0.0,3.0,   !- Vertex 1 X-coordinate m,Vertex 1 Y-coordinate m,Vertex 1 Z-coordinate m
    3.87298334621,2.58198889747,3.0;  !- Vertex 1 X-coordinate m,Vertex 1 Y-coordinate m,Vertex 1 Z-coordinate m

  BuildingSurface:Detailed,
    wall-0_zn_8,             !- Name 
    Wall,                    !- Surface Type 
    Interior Wall,           !- Construction Name 
    Zone_8,                  !- Zone Name 
    Surface,                 !- Outside Boundary Condition 
    wall-2_zn_10,            !- Outside Boundary Condition Object 
    NoSun,                   !- Sun Exposure 
    NoWind,                  !- Wind Exposure 
    ,                        !- View Factor to Ground 
    4.0,                     !- Number of Vertices 
    3.87298334621,2.58198889747,3.0,  !- Vertex 1 X-coordinate m,Vertex 1 Y-coordinate m,Vertex 1 Z-coordinate m
    3.87298334621,2.58198889747,0.0,  !- Vertex 1 X-coordinate m,Vertex 1 Y-coordinate m,Vertex 1 Z-coordinate m
    0.0,2.58198889747,0.0,   !- Vertex 1 X-coordinate m,Vertex 1 Y-coordinate m,Vertex 1 Z-coordinate m
    0.0,2.58198889747,3.0;   !- Vertex 1 X-coordinate m,Vertex 1 Y-coordinate m,Vertex 1 Z-coordinate m

  BuildingSurface:Detailed,
    wall-1_zn_8,             !- Name 
    Wall,                    !- Surface Type 
    Interior Wall,           !- Construction Name 
    Zone_8,                  !- Zone Name 
    Surface,                 !- Outside Boundary Condition 
    wall-corr_zn_8,          !- Outside Boundary Condition Object 
    NoSun,                   !- Sun Exposure 
    NoWind,                  !- Wind Exposure 
    ,                        !- View Factor to Ground 
    4.0,                     !- Number of Vertices 
    3.87298334621,0.0,3.0,   !- Vertex 1 X-coordinate m,Vertex 1 Y-coordinate m,Vertex 1 Z-coordinate m
    3.87298334621,0.0,0.0,   !- Vertex 1 X-coordinate m,Vertex 1 Y-coordinate m,Vertex 1 Z-coordinate m
    3.87298334621,2.58198889747,0.0,  !- Vertex 1 X-coordinate m,Vertex 1 Y-coordinate m,Vertex 1 Z-coordinate m
    3.87298334621,2.58198889747,3.0;  !- Vertex 1 X-coordinate m,Vertex 1 Y-coordinate m,Vertex 1 Z-coordinate m

  BuildingSurface:Detailed,
    wall-2_zn_8,             !- Name 
    Wall,                    !- Surface Type 
    Interior Wall,           !- Construction Name 
    Zone_8,                  !- Zone Name 
    Surface,                 !- Outside Boundary Condition 
    wall-0_zn_6,             !- Outside Boundary Condition Object 
    NoSun,                   !- Sun Exposure 
    NoWind,                  !- Wind Exposure 
    ,                        !- View Factor to Ground 
    4.0,                     !- Number of Vertices 
    0.0,0.0,3.0,             !- Vertex 1 X-coordinate m,Vertex 1 Y-coordinate m,Vertex 1 Z-coordinate m
    0.0,0.0,0.0,             !- Vertex 1 X-coordinate m,Vertex 1 Y-coordinate m,Vertex 1 Z-coordinate m
    3.87298334621,0.0,0.0,   !- Vertex 1 X-coordinate m,Vertex 1 Y-coordinate m,Vertex 1 Z-coordinate m
    3.87298334621,0.0,3.0;   !- Vertex 1 X-coordinate m,Vertex 1 Y-coordinate m,Vertex 1 Z-coordinate m

  BuildingSurface:Detailed,
    wall-3_zn_8,             !- Name 
    Wall,                    !- Surface Type 
    Exterior Wall,           !- Construction Name 
    Zone_8,                  !- Zone Name 
    Outdoors,                !- Outside Boundary Condition 
     ,                       !- Outside Boundary Condition Object 
    SunExposed,              !- Sun Exposure 
    WindExposed,             !- Wind Exposure 
    ,                        !- View Factor to Ground 
    4.0,                     !- Number of Vertices 
    0.0,2.58198889747,3.0,   !- Vertex 1 X-coordinate m,Vertex 1 Y-coordinate m,Vertex 1 Z-coordinate m
    0.0,2.58198889747,0.0,   !- Vertex 1 X-coordinate m,Vertex 1 Y-coordinate m,Vertex 1 Z-coordinate m
    0.0,0.0,0.0,             !- Vertex 1 X-coordinate m,Vertex 1 Y-coordinate m,Vertex 1 Z-coordinate m
    0.0,0.0,3.0;             !- Vertex 1 X-coordinate m,Vertex 1 Y-coordinate m,Vertex 1 Z-coordinate m

  BuildingSurface:Detailed,
    floor_zn_9,              !- Name 
    Floor,                   !- Surface Type 
    Interior Floor,          !- Construction Name 
    Zone_9,                  !- Zone Name 
    Surface,                 !- Outside Boundary Condition 
    ceiling_zn_3,            !- Outside Boundary Condition Object 
    NoSun,                   !- Sun Exposure 
    NoWind,                  !- Wind Exposure 
    ,                        !- View Factor to Ground 
    4.0,                     !- Number of Vertices 
    3.87298334621,2.58198889747,0.0,  !- Vertex 1 X-coordinate m,Vertex 1 Y-coordinate m,Vertex 1 Z-coordinate m
    3.87298334621,0.0,0.0,   !- Vertex 1 X-coordinate m,Vertex 1 Y-coordinate m,Vertex 1 Z-coordinate m
    0.0,0.0,0.0,             !- Vertex 1 X-coordinate m,Vertex 1 Y-coordinate m,Vertex 1 Z-coordinate m
    0.0,2.58198889747,0.0;   !- Vertex 1 X-coordinate m,Vertex 1 Y-coordinate m,Vertex 1 Z-coordinate m

  BuildingSurface:Detailed,
    ceiling_zn_9,            !- Name 
    Roof,                    !- Surface Type 
    Exterior Roof,           !- Construction Name 
    Zone_9,                  !- Zone Name 
    Outdoors,                !- Outside Boundary Condition 
     ,                       !- Outside Boundary Condition Object 
    SunExposed,              !- Sun Exposure 
    WindExposed,             !- Wind Exposure 
    ,                        !- View Factor to Ground 
    4.0,                     !- Number of Vertices 
    0.0,2.58198889747,3.0,   !- Vertex 1 X-coordinate m,Vertex 1 Y-coordinate m,Vertex 1 Z-coordinate m
    0.0,0.0,3.0,             !- Vertex 1 X-coordinate m,Vertex 1 Y-coordinate m,Vertex 1 Z-coordinate m
    3.87298334621,0.0,3.0,   !- Vertex 1 X-coordinate m,Vertex 1 Y-coordinate m,Vertex 1 Z-coordinate m
    3.87298334621,2.58198889747,3.0;  !- Vertex 1 X-coordinate m,Vertex 1 Y-coordinate m,Vertex 1 Z-coordinate m

  BuildingSurface:Detailed,
    wall-0_zn_9,             !- Name 
    Wall,                    !- Surface Type 
    Interior Wall,           !- Construction Name 
    Zone_9,                  !- Zone Name 
    Surface,                 !- Outside Boundary Condition 
    wall-2_zn_11,            !- Outside Boundary Condition Object 
    NoSun,                   !- Sun Exposure 
    NoWind,                  !- Wind Exposure 
    ,                        !- View Factor to Ground 
    4.0,                     !- Number of Vertices 
    3.87298334621,2.58198889747,3.0,  !- Vertex 1 X-coordinate m,Vertex 1 Y-coordinate m,Vertex 1 Z-coordinate m
    3.87298334621,2.58198889747,0.0,  !- Vertex 1 X-coordinate m,Vertex 1 Y-coordinate m,Vertex 1 Z-coordinate m
    0.0,2.58198889747,0.0,   !- Vertex 1 X-coordinate m,Vertex 1 Y-coordinate m,Vertex 1 Z-coordinate m
    0.0,2.58198889747,3.0;   !- Vertex 1 X-coordinate m,Vertex 1 Y-coordinate m,Vertex 1 Z-coordinate m

  BuildingSurface:Detailed,
    wall-1_zn_9,             !- Name 
    Wall,                    !- Surface Type 
    Exterior Wall,           !- Construction Name 
    Zone_9,                  !- Zone Name 
    Outdoors,                !- Outside Boundary Condition 
     ,                       !- Outside Boundary Condition Object 
    SunExposed,              !- Sun Exposure 
    WindExposed,             !- Wind Exposure 
    ,                        !- View Factor to Ground 
    4.0,                     !- Number of Vertices 
    3.87298334621,0.0,3.0,   !- Vertex 1 X-coordinate m,Vertex 1 Y-coordinate m,Vertex 1 Z-coordinate m
    3.87298334621,0.0,0.0,   !- Vertex 1 X-coordinate m,Vertex 1 Y-coordinate m,Vertex 1 Z-coordinate m
    3.87298334621,2.58198889747,0.0,  !- Vertex 1 X-coordinate m,Vertex 1 Y-coordinate m,Vertex 1 Z-coordinate m
    3.87298334621,2.58198889747,3.0;  !- Vertex 1 X-coordinate m,Vertex 1 Y-coordinate m,Vertex 1 Z-coordinate m

  BuildingSurface:Detailed,
    wall-2_zn_9,             !- Name 
    Wall,                    !- Surface Type 
    Interior Wall,           !- Construction Name 
    Zone_9,                  !- Zone Name 
    Surface,                 !- Outside Boundary Condition 
    wall-0_zn_7,             !- Outside Boundary Condition Object 
    NoSun,                   !- Sun Exposure 
    NoWind,                  !- Wind Exposure 
    ,                        !- View Factor to Ground 
    4.0,                     !- Number of Vertices 
    0.0,0.0,3.0,             !- Vertex 1 X-coordinate m,Vertex 1 Y-coordinate m,Vertex 1 Z-coordinate m
    0.0,0.0,0.0,             !- Vertex 1 X-coordinate m,Vertex 1 Y-coordinate m,Vertex 1 Z-coordinate m
    3.87298334621,0.0,0.0,   !- Vertex 1 X-coordinate m,Vertex 1 Y-coordinate m,Vertex 1 Z-coordinate m
    3.87298334621,0.0,3.0;   !- Vertex 1 X-coordinate m,Vertex 1 Y-coordinate m,Vertex 1 Z-coordinate m

  BuildingSurface:Detailed,
    wall-3_zn_9,             !- Name 
    Wall,                    !- Surface Type 
    Interior Wall,           !- Construction Name 
    Zone_9,                  !- Zone Name 
    Surface,                 !- Outside Boundary Condition 
    wall-corr_zn_9,          !- Outside Boundary Condition Object 
    NoSun,                   !- Sun Exposure 
    NoWind,                  !- Wind Exposure 
    ,                        !- View Factor to Ground 
    4.0,                     !- Number of Vertices 
    0.0,2.58198889747,3.0,   !- Vertex 1 X-coordinate m,Vertex 1 Y-coordinate m,Vertex 1 Z-coordinate m
    0.0,2.58198889747,0.0,   !- Vertex 1 X-coordinate m,Vertex 1 Y-coordinate m,Vertex 1 Z-coordinate m
    0.0,0.0,0.0,             !- Vertex 1 X-coordinate m,Vertex 1 Y-coordinate m,Vertex 1 Z-coordinate m
    0.0,0.0,3.0;             !- Vertex 1 X-coordinate m,Vertex 1 Y-coordinate m,Vertex 1 Z-coordinate m

  BuildingSurface:Detailed,
    floor_zn_10,             !- Name 
    Floor,                   !- Surface Type 
    Interior Floor,          !- Construction Name 
    Zone_10,                 !- Zone Name 
    Surface,                 !- Outside Boundary Condition 
    ceiling_zn_4,            !- Outside Boundary Condition Object 
    NoSun,                   !- Sun Exposure 
    NoWind,                  !- Wind Exposure 
    ,                        !- View Factor to Ground 
    4.0,                     !- Number of Vertices 
    3.87298334621,2.58198889747,0.0,  !- Vertex 1 X-coordinate m,Vertex 1 Y-coordinate m,Vertex 1 Z-coordinate m
    3.87298334621,0.0,0.0,   !- Vertex 1 X-coordinate m,Vertex 1 Y-coordinate m,Vertex 1 Z-coordinate m
    0.0,0.0,0.0,             !- Vertex 1 X-coordinate m,Vertex 1 Y-coordinate m,Vertex 1 Z-coordinate m
    0.0,2.58198889747,0.0;   !- Vertex 1 X-coordinate m,Vertex 1 Y-coordinate m,Vertex 1 Z-coordinate m

  BuildingSurface:Detailed,
    ceiling_zn_10,           !- Name 
    Roof,                    !- Surface Type 
    Exterior Roof,           !- Construction Name 
    Zone_10,                 !- Zone Name 
    Outdoors,                !- Outside Boundary Condition 
     ,                       !- Outside Boundary Condition Object 
    SunExposed,              !- Sun Exposure 
    WindExposed,             !- Wind Exposure 
    ,                        !- View Factor to Ground 
    4.0,                     !- Number of Vertices 
    0.0,2.58198889747,3.0,   !- Vertex 1 X-coordinate m,Vertex 1 Y-coordinate m,Vertex 1 Z-coordinate m
    0.0,0.0,3.0,             !- Vertex 1 X-coordinate m,Vertex 1 Y-coordinate m,Vertex 1 Z-coordinate m
    3.87298334621,0.0,3.0,   !- Vertex 1 X-coordinate m,Vertex 1 Y-coordinate m,Vertex 1 Z-coordinate m
    3.87298334621,2.58198889747,3.0;  !- Vertex 1 X-coordinate m,Vertex 1 Y-coordinate m,Vertex 1 Z-coordinate m

  BuildingSurface:Detailed,
    wall-0_zn_10,            !- Name 
    Wall,                    !- Surface Type 
    Exterior Wall,           !- Construction Name 
    Zone_10,                 !- Zone Name 
    Outdoors,                !- Outside Boundary Condition 
     ,                       !- Outside Boundary Condition Object 
    SunExposed,              !- Sun Exposure 
    WindExposed,             !- Wind Exposure 
    ,                        !- View Factor to Ground 
    4.0,                     !- Number of Vertices 
    3.87298334621,2.58198889747,3.0,  !- Vertex 1 X-coordinate m,Vertex 1 Y-coordinate m,Vertex 1 Z-coordinate m
    3.87298334621,2.58198889747,0.0,  !- Vertex 1 X-coordinate m,Vertex 1 Y-coordinate m,Vertex 1 Z-coordinate m
    0.0,2.58198889747,0.0,   !- Vertex 1 X-coordinate m,Vertex 1 Y-coordinate m,Vertex 1 Z-coordinate m
    0.0,2.58198889747,3.0;   !- Vertex 1 X-coordinate m,Vertex 1 Y-coordinate m,Vertex 1 Z-coordinate m

  BuildingSurface:Detailed,
    wall-1_zn_10,            !- Name 
    Wall,                    !- Surface Type 
    Interior Wall,           !- Construction Name 
    Zone_10,                 !- Zone Name 
    Surface,                 !- Outside Boundary Condition 
    wall-corr_zn_10,         !- Outside Boundary Condition Object 
    NoSun,                   !- Sun Exposure 
    NoWind,                  !- Wind Exposure 
    ,                        !- View Factor to Ground 
    4.0,                     !- Number of Vertices 
    3.87298334621,0.0,3.0,   !- Vertex 1 X-coordinate m,Vertex 1 Y-coordinate m,Vertex 1 Z-coordinate m
    3.87298334621,0.0,0.0,   !- Vertex 1 X-coordinate m,Vertex 1 Y-coordinate m,Vertex 1 Z-coordinate m
    3.87298334621,2.58198889747,0.0,  !- Vertex 1 X-coordinate m,Vertex 1 Y-coordinate m,Vertex 1 Z-coordinate m
    3.87298334621,2.58198889747,3.0;  !- Vertex 1 X-coordinate m,Vertex 1 Y-coordinate m,Vertex 1 Z-coordinate m

  BuildingSurface:Detailed,
    wall-2_zn_10,            !- Name 
    Wall,                    !- Surface Type 
    Interior Wall,           !- Construction Name 
    Zone_10,                 !- Zone Name 
    Surface,                 !- Outside Boundary Condition 
    wall-0_zn_8,             !- Outside Boundary Condition Object 
    NoSun,                   !- Sun Exposure 
    NoWind,                  !- Wind Exposure 
    ,                        !- View Factor to Ground 
    4.0,                     !- Number of Vertices 
    0.0,0.0,3.0,             !- Vertex 1 X-coordinate m,Vertex 1 Y-coordinate m,Vertex 1 Z-coordinate m
    0.0,0.0,0.0,             !- Vertex 1 X-coordinate m,Vertex 1 Y-coordinate m,Vertex 1 Z-coordinate m
    3.87298334621,0.0,0.0,   !- Vertex 1 X-coordinate m,Vertex 1 Y-coordinate m,Vertex 1 Z-coordinate m
    3.87298334621,0.0,3.0;   !- Vertex 1 X-coordinate m,Vertex 1 Y-coordinate m,Vertex 1 Z-coordinate m

  BuildingSurface:Detailed,
    wall-3_zn_10,            !- Name 
    Wall,                    !- Surface Type 
    Exterior Wall,           !- Construction Name 
    Zone_10,                 !- Zone Name 
    Outdoors,                !- Outside Boundary Condition 
     ,                       !- Outside Boundary Condition Object 
    SunExposed,              !- Sun Exposure 
    WindExposed,             !- Wind Exposure 
    ,                        !- View Factor to Ground 
    4.0,                     !- Number of Vertices 
    0.0,2.58198889747,3.0,   !- Vertex 1 X-coordinate m,Vertex 1 Y-coordinate m,Vertex 1 Z-coordinate m
    0.0,2.58198889747,0.0,   !- Vertex 1 X-coordinate m,Vertex 1 Y-coordinate m,Vertex 1 Z-coordinate m
    0.0,0.0,0.0,             !- Vertex 1 X-coordinate m,Vertex 1 Y-coordinate m,Vertex 1 Z-coordinate m
    0.0,0.0,3.0;             !- Vertex 1 X-coordinate m,Vertex 1 Y-coordinate m,Vertex 1 Z-coordinate m

  BuildingSurface:Detailed,
    floor_zn_11,             !- Name 
    Floor,                   !- Surface Type 
    Interior Floor,          !- Construction Name 
    Zone_11,                 !- Zone Name 
    Surface,                 !- Outside Boundary Condition 
    ceiling_zn_5,            !- Outside Boundary Condition Object 
    NoSun,                   !- Sun Exposure 
    NoWind,                  !- Wind Exposure 
    ,                        !- View Factor to Ground 
    4.0,                     !- Number of Vertices 
    3.87298334621,2.58198889747,0.0,  !- Vertex 1 X-coordinate m,Vertex 1 Y-coordinate m,Vertex 1 Z-coordinate m
    3.87298334621,0.0,0.0,   !- Vertex 1 X-coordinate m,Vertex 1 Y-coordinate m,Vertex 1 Z-coordinate m
    0.0,0.0,0.0,             !- Vertex 1 X-coordinate m,Vertex 1 Y-coordinate m,Vertex 1 Z-coordinate m
    0.0,2.58198889747,0.0;   !- Vertex 1 X-coordinate m,Vertex 1 Y-coordinate m,Vertex 1 Z-coordinate m

  BuildingSurface:Detailed,
    ceiling_zn_11,           !- Name 
    Roof,                    !- Surface Type 
    Exterior Roof,           !- Construction Name 
    Zone_11,                 !- Zone Name 
    Outdoors,                !- Outside Boundary Condition 
     ,                       !- Outside Boundary Condition Object 
    SunExposed,              !- Sun Exposure 
    WindExposed,             !- Wind Exposure 
    ,                        !- View Factor to Ground 
    4.0,                     !- Number of Vertices 
    0.0,2.58198889747,3.0,   !- Vertex 1 X-coordinate m,Vertex 1 Y-coordinate m,Vertex 1 Z-coordinate m
    0.0,0.0,3.0,             !- Vertex 1 X-coordinate m,Vertex 1 Y-coordinate m,Vertex 1 Z-coordinate m
    3.87298334621,0.0,3.0,   !- Vertex 1 X-coordinate m,Vertex 1 Y-coordinate m,Vertex 1 Z-coordinate m
    3.87298334621,2.58198889747,3.0;  !- Vertex 1 X-coordinate m,Vertex 1 Y-coordinate m,Vertex 1 Z-coordinate m

  BuildingSurface:Detailed,
    wall-0_zn_11,            !- Name 
    Wall,                    !- Surface Type 
    Exterior Wall,           !- Construction Name 
    Zone_11,                 !- Zone Name 
    Outdoors,                !- Outside Boundary Condition 
     ,                       !- Outside Boundary Condition Object 
    SunExposed,              !- Sun Exposure 
    WindExposed,             !- Wind Exposure 
    ,                        !- View Factor to Ground 
    4.0,                     !- Number of Vertices 
    3.87298334621,2.58198889747,3.0,  !- Vertex 1 X-coordinate m,Vertex 1 Y-coordinate m,Vertex 1 Z-coordinate m
    3.87298334621,2.58198889747,0.0,  !- Vertex 1 X-coordinate m,Vertex 1 Y-coordinate m,Vertex 1 Z-coordinate m
    0.0,2.58198889747,0.0,   !- Vertex 1 X-coordinate m,Vertex 1 Y-coordinate m,Vertex 1 Z-coordinate m
    0.0,2.58198889747,3.0;   !- Vertex 1 X-coordinate m,Vertex 1 Y-coordinate m,Vertex 1 Z-coordinate m

  BuildingSurface:Detailed,
    wall-1_zn_11,            !- Name 
    Wall,                    !- Surface Type 
    Exterior Wall,           !- Construction Name 
    Zone_11,                 !- Zone Name 
    Outdoors,                !- Outside Boundary Condition 
     ,                       !- Outside Boundary Condition Object 
    SunExposed,              !- Sun Exposure 
    WindExposed,             !- Wind Exposure 
[...]

  AirflowNetwork:MultiZone:Surface,
    window-2_zn_7,           !- Surface Name 
    Janela,                  !- Leakage Component Name 
    ,                        !- External Node Name 
    0.5,                     !- Window/Door Opening Factor, or Crack Factor {dimensionless}
    Temperature,             !- Ventilation Control Mode 
    Temp_setpoint,           !- Ventilation Control Zone Temperature Setpoint Schedule Name 
    ,                        !- Minimum Venting Open Factor {dimensionless}
    ,                        !- Indoor and Outdoor Temperature Difference Lower Limit For Maximum Venting Open Factor {deltaC}
    100.0,                   !- Indoor and Outdoor Temperature Difference Upper Limit for Minimum Venting Open Factor {deltaC}
    ,                        !- Indoor and Outdoor Enthalpy Difference Lower Limit For Maximum Venting Open Factor {deltaJ/kg}
    300000.0,                !- Indoor and Outdoor Enthalpy Difference Upper Limit for Minimum Venting Open Factor {deltaJ/kg}
    Sch_Ocupacao;            !- Venting Availability Schedule Name 

  AirflowNetwork:MultiZone:Surface,
    window-3_zn_8,           !- Surface Name 
    Janela,                  !- Leakage Component Name 
    ,                        !- External Node Name 
    0.5,                     !- Window/Door Opening Factor, or Crack Factor {dimensionless}
    Temperature,             !- Ventilation Control Mode 
    Temp_setpoint,           !- Ventilation Control Zone Temperature Setpoint Schedule Name 
    ,                        !- Minimum Venting Open Factor {dimensionless}
    ,                        !- Indoor and Outdoor Temperature Difference Lower Limit For Maximum Venting Open Factor {deltaC}
    100.0,                   !- Indoor and Outdoor Temperature Difference Upper Limit for Minimum Venting Open Factor {deltaC}
    ,                        !- Indoor and Outdoor Enthalpy Difference Lower Limit For Maximum Venting Open Factor {deltaJ/kg}
    300000.0,                !- Indoor and Outdoor Enthalpy Difference Upper Limit for Minimum Venting Open Factor {deltaJ/kg}
    Sch_Ocupacao;            !- Venting Availability Schedule Name 

  AirflowNetwork:MultiZone:Surface,
    window-1_zn_9,           !- Surface Name 
    Janela,                  !- Leakage Component Name 
    ,                        !- External Node Name 
    0.5,                     !- Window/Door Opening Factor, or Crack Factor {dimensionless}
    Temperature,             !- Ventilation Control Mode 
    Temp_setpoint,           !- Ventilation Control Zone Temperature Setpoint Schedule Name 
    ,                        !- Minimum Venting Open Factor {dimensionless}
    ,                        !- Indoor and Outdoor Temperature Difference Lower Limit For Maximum Venting Open Factor {deltaC}
    100.0,                   !- Indoor and Outdoor Temperature Difference Upper Limit for Minimum Venting Open Factor {deltaC}
    ,                        !- Indoor and Outdoor Enthalpy Difference Lower Limit For Maximum Venting Open Factor {deltaJ/kg}
    300000.0,                !- Indoor and Outdoor Enthalpy Difference Upper Limit for Minimum Venting Open Factor {deltaJ/kg}
    Sch_Ocupacao;            !- Venting Availability Schedule Name 

  AirflowNetwork:MultiZone:Surface,
    window-0_zn_10,          !- Surface Name 
    Janela,                  !- Leakage Component Name 
    ,                        !- External Node Name 
    0.5,                     !- Window/Door Opening Factor, or Crack Factor {dimensionless}
    Temperature,             !- Ventilation Control Mode 
    Temp_setpoint,           !- Ventilation Control Zone Temperature Setpoint Schedule Name 
    ,                        !- Minimum Venting Open Factor {dimensionless}
    ,                        !- Indoor and Outdoor Temperature Difference Lower Limit For Maximum Venting Open Factor {deltaC}
    100.0,                   !- Indoor and Outdoor Temperature Difference Upper Limit for Minimum Venting Open Factor {deltaC}
    ,                        !- Indoor and Outdoor Enthalpy Difference Lower Limit For Maximum Venting Open Factor {deltaJ/kg}
    300000.0,                !- Indoor and Outdoor Enthalpy Difference Upper Limit for Minimum Venting Open Factor {deltaJ/kg}
    Sch_Ocupacao;            !- Venting Availability Schedule Name 

  AirflowNetwork:MultiZone:Surface,
    window-3_zn_10,          !- Surface Name 
    Janela,                  !- Leakage Component Name 
    ,                        !- External Node Name 
    0.5,                     !- Window/Door Opening Factor, or Crack Factor {dimensionless}
    Temperature,             !- Ventilation Control Mode 
    Temp_setpoint,           !- Ventilation Control Zone Temperature Setpoint Schedule Name 
    ,                        !- Minimum Venting Open Factor {dimensionless}
    ,                        !- Indoor and Outdoor Temperature Difference Lower Limit For Maximum Venting Open Factor {deltaC}
    100.0,                   !- Indoor and Outdoor Temperature Difference Upper Limit for Minimum Venting Open Factor {deltaC}
    ,                        !- Indoor and Outdoor Enthalpy Difference Lower Limit For Maximum Venting Open Factor {deltaJ/kg}
    300000.0,                !- Indoor and Outdoor Enthalpy Difference Upper Limit for Minimum Venting Open Factor {deltaJ/kg}
    Sch_Ocupacao;            !- Venting Availability Schedule Name 

  AirflowNetwork:MultiZone:Surface,
    window-0_zn_11,          !- Surface Name 
    Janela,                  !- Leakage Component Name 
    ,                        !- External Node Name 
    0.5,                     !- Window/Door Opening Factor, or Crack Factor {dimensionless}
    Temperature,             !- Ventilation Control Mode 
    Temp_setpoint,           !- Ventilation Control Zone Temperature Setpoint Schedule Name 
    ,                        !- Minimum Venting Open Factor {dimensionless}
    ,                        !- Indoor and Outdoor Temperature Difference Lower Limit For Maximum Venting Open Factor {deltaC}
    100.0,                   !- Indoor and Outdoor Temperature Difference Upper Limit for Minimum Venting Open Factor {deltaC}
    ,                        !- Indoor and Outdoor Enthalpy Difference Lower Limit For Maximum Venting Open Factor {deltaJ/kg}
    300000.0,                !- Indoor and Outdoor Enthalpy Difference Upper Limit for Minimum Venting Open Factor {deltaJ/kg}
    Sch_Ocupacao;            !- Venting Availability Schedule Name 

  AirflowNetwork:MultiZone:Surface,
    door_zn_0,               !- Surface Name 
    Porta,                   !- Leakage Component Name 
    ,                        !- External Node Name 
    1.0,                     !- Window/Door Opening Factor, or Crack Factor {dimensionless}
    Temperature,             !- Ventilation Control Mode 
    Temp_setpoint,           !- Ventilation Control Zone Temperature Setpoint Schedule Name 
    ,                        !- Minimum Venting Open Factor {dimensionless}
    ,                        !- Indoor and Outdoor Temperature Difference Lower Limit For Maximum Venting Open Factor {deltaC}
    100.0,                   !- Indoor and Outdoor Temperature Difference Upper Limit for Minimum Venting Open Factor {deltaC}
    ,                        !- Indoor and Outdoor Enthalpy Difference Lower Limit For Maximum Venting Open Factor {deltaJ/kg}
    300000.0,                !- Indoor and Outdoor Enthalpy Difference Upper Limit for Minimum Venting Open Factor {deltaJ/kg}
    Sch_Ocupacao;            !- Venting Availability Schedule Name 

  AirflowNetwork:MultiZone:Surface,
    door_zn_1,               !- Surface Name 
    Porta,                   !- Leakage Component Name 
    ,                        !- External Node Name 
    1.0,                     !- Window/Door Opening Factor, or Crack Factor {dimensionless}
    Temperature,             !- Ventilation Control Mode 
    Temp_setpoint,           !- Ventilation Control Zone Temperature Setpoint Schedule Name 
    ,                        !- Minimum Venting Open Factor {dimensionless}
    ,                        !- Indoor and Outdoor Temperature Difference Lower Limit For Maximum Venting Open Factor {deltaC}
    100.0,                   !- Indoor and Outdoor Temperature Difference Upper Limit for Minimum Venting Open Factor {deltaC}
    ,                        !- Indoor and Outdoor Enthalpy Difference Lower Limit For Maximum Venting Open Factor {deltaJ/kg}
    300000.0,                !- Indoor and Outdoor Enthalpy Difference Upper Limit for Minimum Venting Open Factor {deltaJ/kg}
    Sch_Ocupacao;            !- Venting Availability Schedule Name 

  AirflowNetwork:MultiZone:Surface,
    door_zn_2,               !- Surface Name 
    Porta,                   !- Leakage Component Name 
    ,                        !- External Node Name 
    1.0,                     !- Window/Door Opening Factor, or Crack Factor {dimensionless}
    Temperature,             !- Ventilation Control Mode 
    Temp_setpoint,           !- Ventilation Control Zone Temperature Setpoint Schedule Name 
    ,                        !- Minimum Venting Open Factor {dimensionless}
    ,                        !- Indoor and Outdoor Temperature Difference Lower Limit For Maximum Venting Open Factor {deltaC}
    100.0,                   !- Indoor and Outdoor Temperature Difference Upper Limit for Minimum Venting Open Factor {deltaC}
    ,                        !- Indoor and Outdoor Enthalpy Difference Lower Limit For Maximum Venting Open Factor {deltaJ/kg}
    300000.0,                !- Indoor and Outdoor Enthalpy Difference Upper Limit for Minimum Venting Open Factor {deltaJ/kg}
    Sch_Ocupacao;            !- Venting Availability Schedule Name 

  AirflowNetwork:MultiZone:Surface,
    door_zn_3,               !- Surface Name 
    Porta,                   !- Leakage Component Name 
    ,                        !- External Node Name 
    1.0,                     !- Window/Door Opening Factor, or Crack Factor {dimensionless}
    Temperature,             !- Ventilation Control Mode 
    Temp_setpoint,           !- Ventilation Control Zone Temperature Setpoint Schedule Name 
    ,                        !- Minimum Venting Open Factor {dimensionless}
    ,                        !- Indoor and Outdoor Temperature Difference Lower Limit For Maximum Venting Open Factor {deltaC}
    100.0,                   !- Indoor and Outdoor Temperature Difference Upper Limit for Minimum Venting Open Factor {deltaC}
    ,                        !- Indoor and Outdoor Enthalpy Difference Lower Limit For Maximum Venting Open Factor {deltaJ/kg}
    300000.0,                !- Indoor and Outdoor Enthalpy Difference Upper Limit for Minimum Venting Open Factor {deltaJ/kg}
    Sch_Ocupacao;            !- Venting Availability Schedule Name 

  AirflowNetwork:MultiZone:Surface,
    door_zn_4,               !- Surface Name 
    Porta,                   !- Leakage Component Name 
    ,                        !- External Node Name 
    1.0,                     !- Window/Door Opening Factor, or Crack Factor {dimensionless}
    Temperature,             !- Ventilation Control Mode 
    Temp_setpoint,           !- Ventilation Control Zone Temperature Setpoint Schedule Name 
    ,                        !- Minimum Venting Open Factor {dimensionless}
    ,                        !- Indoor and Outdoor Temperature Difference Lower Limit For Maximum Venting Open Factor {deltaC}
    100.0,                   !- Indoor and Outdoor Temperature Difference Upper Limit for Minimum Venting Open Factor {deltaC}
    ,                        !- Indoor and Outdoor Enthalpy Difference Lower Limit For Maximum Venting Open Factor {deltaJ/kg}
    300000.0,                !- Indoor and Outdoor Enthalpy Difference Upper Limit for Minimum Venting Open Factor {deltaJ/kg}
    Sch_Ocupacao;            !- Venting Availability Schedule Name 

  AirflowNetwork:MultiZone:Surface,
    door_zn_5,               !- Surface Name 
    Porta,                   !- Leakage Component Name 
    ,                        !- External Node Name 
    1.0,                     !- Window/Door Opening Factor, or Crack Factor {dimensionless}
    Temperature,             !- Ventilation Control Mode 
    Temp_setpoint,           !- Ventilation Control Zone Temperature Setpoint Schedule Name 
    ,                        !- Minimum Venting Open Factor {dimensionless}
    ,                        !- Indoor and Outdoor Temperature Difference Lower Limit For Maximum Venting Open Factor {deltaC}
    100.0,                   !- Indoor and Outdoor Temperature Difference Upper Limit for Minimum Venting Open Factor {deltaC}
    ,                        !- Indoor and Outdoor Enthalpy Difference Lower Limit For Maximum Venting Open Factor {deltaJ/kg}
    300000.0,                !- Indoor and Outdoor Enthalpy Difference Upper Limit for Minimum Venting Open Factor {deltaJ/kg}
    Sch_Ocupacao;            !- Venting Availability Schedule Name 

  AirflowNetwork:MultiZone:Surface,
    door_zn_6,               !- Surface Name 
    Porta,                   !- Leakage Component Name 
    ,                        !- External Node Name 
    1.0,                     !- Window/Door Opening Factor, or Crack Factor {dimensionless}
    Temperature,             !- Ventilation Control Mode 
    Temp_setpoint,           !- Ventilation Control Zone Temperature Setpoint Schedule Name 
    ,                        !- Minimum Venting Open Factor {dimensionless}
    ,                        !- Indoor and Outdoor Temperature Difference Lower Limit For Maximum Venting Open Factor {deltaC}
    100.0,                   !- Indoor and Outdoor Temperature Difference Upper Limit for Minimum Venting Open Factor {deltaC}
    ,                        !- Indoor and Outdoor Enthalpy Difference Lower Limit For Maximum Venting Open Factor {deltaJ/kg}
    300000.0,                !- Indoor and Outdoor Enthalpy Difference Upper Limit for Minimum Venting Open Factor {deltaJ/kg}
    Sch_Ocupacao;            !- Venting Availability Schedule Name 

  AirflowNetwork:MultiZone:Surface,
    door_zn_7,               !- Surface Name 
    Porta,                   !- Leakage Component Name 
    ,                        !- External Node Name 
    1.0,                     !- Window/Door Opening Factor, or Crack Factor {dimensionless}
    Temperature,             !- Ventilation Control Mode 
    Temp_setpoint,           !- Ventilation Control Zone Temperature Setpoint Schedule Name 
    ,                        !- Minimum Venting Open Factor {dimensionless}
    ,                        !- Indoor and Outdoor Temperature Difference Lower Limit For Maximum Venting Open Factor {deltaC}
    100.0,                   !- Indoor and Outdoor Temperature Difference Upper Limit for Minimum Venting Open Factor {deltaC}
    ,                        !- Indoor and Outdoor Enthalpy Difference Lower Limit For Maximum Venting Open Factor {deltaJ/kg}
    300000.0,                !- Indoor and Outdoor Enthalpy Difference Upper Limit for Minimum Venting Open Factor {deltaJ/kg}
    Sch_Ocupacao;            !- Venting Availability Schedule Name 

  AirflowNetwork:MultiZone:Surface,
    door_zn_8,               !- Surface Name 
    Porta,                   !- Leakage Component Name 
    ,                        !- External Node Name 
    1.0,                     !- Window/Door Opening Factor, or Crack Factor {dimensionless}
    Temperature,             !- Ventilation Control Mode 
    Temp_setpoint,           !- Ventilation Control Zone Temperature Setpoint Schedule Name 
    ,                        !- Minimum Venting Open Factor {dimensionless}
    ,                        !- Indoor and Outdoor Temperature Difference Lower Limit For Maximum Venting Open Factor {deltaC}
    100.0,                   !- Indoor and Outdoor Temperature Difference Upper Limit for Minimum Venting Open Factor {deltaC}
    ,                        !- Indoor and Outdoor Enthalpy Difference Lower Limit For Maximum Venting Open Factor {deltaJ/kg}
    300000.0,                !- Indoor and Outdoor Enthalpy Difference Upper Limit for Minimum Venting Open Factor {deltaJ/kg}
    Sch_Ocupacao;            !- Venting Availability Schedule Name 

  AirflowNetwork:MultiZone:Surface,
    door_zn_9,               !- Surface Name 
    Porta,                   !- Leakage Component Name 
    ,                        !- External Node Name 
    1.0,                     !- Window/Door Opening Factor, or Crack Factor {dimensionless}
    Temperature,             !- Ventilation Control Mode 
    Temp_setpoint,           !- Ventilation Control Zone Temperature Setpoint Schedule Name 
    ,                        !- Minimum Venting Open Factor {dimensionless}
    ,                        !- Indoor and Outdoor Temperature Difference Lower Limit For Maximum Venting Open Factor {deltaC}
    100.0,                   !- Indoor and Outdoor Temperature Difference Upper Limit for Minimum Venting Open Factor {deltaC}
    ,                        !- Indoor and Outdoor Enthalpy Difference Lower Limit For Maximum Venting Open Factor {deltaJ/kg}
    300000.0,                !- Indoor and Outdoor Enthalpy Difference Upper Limit for Minimum Venting Open Factor {deltaJ/kg}
    Sch_Ocupacao;            !- Venting Availability Schedule Name 

  AirflowNetwork:MultiZone:Surface,
    door_zn_10,              !- Surface Name 
    Porta,                   !- Leakage Component Name 
    ,                        !- External Node Name 
    1.0,                     !- Window/Door Opening Factor, or Crack Factor {dimensionless}
    Temperature,             !- Ventilation Control Mode 
    Temp_setpoint,           !- Ventilation Control Zone Temperature Setpoint Schedule Name 
    ,                        !- Minimum Venting Open Factor {dimensionless}
    ,                        !- Indoor and Outdoor Temperature Difference Lower Limit For Maximum Venting Open Factor {deltaC}
    100.0,                   !- Indoor and Outdoor Temperature Difference Upper Limit for Minimum Venting Open Factor {deltaC}
    ,                        !- Indoor and Outdoor Enthalpy Difference Lower Limit For Maximum Venting Open Factor {deltaJ/kg}
    300000.0,                !- Indoor and Outdoor Enthalpy Difference Upper Limit for Minimum Venting Open Factor {deltaJ/kg}
    Sch_Ocupacao;            !- Venting Availability Schedule Name 

  AirflowNetwork:MultiZone:Surface,
    door_zn_11,              !- Surface Name 
    Porta,                   !- Leakage Component Name 
    ,                        !- External Node Name 
    1.0,                     !- Window/Door Opening Factor, or Crack Factor {dimensionless}
    Temperature,             !- Ventilation Control Mode 
    Temp_setpoint,           !- Ventilation Control Zone Temperature Setpoint Schedule Name 
    ,                        !- Minimum Venting Open Factor {dimensionless}
    ,                        !- Indoor and Outdoor Temperature Difference Lower Limit For Maximum Venting Open Factor {deltaC}
    100.0,                   !- Indoor and Outdoor Temperature Difference Upper Limit for Minimum Venting Open Factor {deltaC}
    ,                        !- Indoor and Outdoor Enthalpy Difference Lower Limit For Maximum Venting Open Factor {deltaJ/kg}
    300000.0,                !- Indoor and Outdoor Enthalpy Difference Upper Limit for Minimum Venting Open Factor {deltaJ/kg}
    Sch_Ocupacao;            !- Venting Availability Schedule Name 

!-   ===========  ALL OBJECTS OF GROUP: Output Reporting  ===========

  Output:VariableDictionary,Regular;

  Output:Table:SummaryReports,

  OutputControl:Table:Style,
    HTML,                    !- Column Separator 
    JtoKWH;                  !- Unit Conversion 

  Output:Variable,*,Site Outdoor Air Drybulb Temperature,Hourly;

  Output:Variable,*,Zone Operative Temperature,Hourly;

  Output:Variable,*,Schedule Value,Hourly;
